<?xml version="1.0" encoding="UTF-8"?>

<!-- generated on 07/01/21 14:32:10 by Eclipse SUMO netedit Version 1.7.0
<configuration xmlns:xsi="http://www.w3.org/2001/XMLSchema-instance" xsi:noNamespaceSchemaLocation="http://sumo.dlr.de/xsd/netconvertConfiguration.xsd">

    <input>
        <sumo-net-file value="C:\Users\hugue\MontrealTrafficSimulation%20-%20Copie\SUMO_tout\input\carte\CarteMontreal_Sans_Un_Res.net.xml"/>
    </input>

    <output>
        <output-file value="C:\Users\hugue\MontrealTrafficSimulation%20-%20Copie\SUMO_tout\input\carte\CarteMontreal_Sans_Un_Res.net.xml"/>
    </output>

    <processing>
        <geometry.min-radius.fix.railways value="false"/>
        <geometry.max-grade.fix value="false"/>
        <offset.disable-normalization value="true"/>
        <lefthand value="false"/>
    </processing>

    <junctions>
        <no-turnarounds value="true"/>
        <junctions.corner-detail value="5"/>
        <junctions.limit-turn-speed value="5.5"/>
        <rectangular-lane-cut value="false"/>
    </junctions>

    <pedestrian>
        <walkingareas value="false"/>
    </pedestrian>

    <netedit>
        <additional-files value="C:\Users\hugue\MontrealTrafficSimulation%20-%20Copie\SUMO_tout\test.add.xml"/>
        <route-files value="C:\Users\hugue\MontrealTrafficSimulation%20-%20Copie\SUMO_tout\route.rou.xml"/>
    </netedit>

    <report>
        <aggregate-warnings value="5"/>
    </report>

</configuration>
-->

<routes xmlns:xsi="http://www.w3.org/2001/XMLSchema-instance" xsi:noNamespaceSchemaLocation="http://sumo.dlr.de/xsd/routes_file.xsd">
    <vehicle id="1" depart="17360.00">
        <route edges="827392078#3" color="yellow"/>
        <stop parkingArea="1" duration="18000.00"/>
    </vehicle>
    <vehicle id="10" depart="17360.00">
        <route edges="22894595#12" color="yellow"/>
        <stop parkingArea="10" duration="18000.00"/>
    </vehicle>
    <vehicle id="11" depart="17360.00">
        <route edges="461311216" color="yellow"/>
        <stop parkingArea="11" duration="18000.00"/>
    </vehicle>
    <vehicle id="12" depart="17360.00">
        <route edges="460753676" color="yellow"/>
        <stop parkingArea="12" duration="18000.00"/>
    </vehicle>
    <vehicle id="15" depart="17360.00">
        <route edges="567770353#0" color="yellow"/>
        <stop parkingArea="15" duration="18000.00"/>
    </vehicle>
  
   
    <vehicle id="19" depart="17360.00">
        <route edges="453530971" color="yellow"/>
        <stop parkingArea="19" duration="18000.00"/>
    </vehicle>
    <vehicle id="1B" depart="17360.00">
        <route edges="450724846" color="yellow"/>
        <stop parkingArea="1B" duration="18000.00"/>
    </vehicle>
    <vehicle id="1C" depart="17360.00">
        <route edges="453483743" color="yellow"/>
        <stop parkingArea="1C" duration="18000.00"/>
    </vehicle>
    <vehicle id="1D" depart="17360.00">
        <route edges="453483738" color="yellow"/>
        <stop parkingArea="1D" duration="18000.00"/>
    </vehicle>
    <vehicle id="1E" depart="17360.00">
        <route edges="393827232#1" color="yellow"/>
        <stop parkingArea="1E" duration="18000.00"/>
    </vehicle>
  
    <vehicle id="1G" depart="17360.00">
        <route edges="453483737" color="yellow"/>
        <stop parkingArea="1G" duration="18000.00"/>
    </vehicle>
    <vehicle id="1H" depart="17360.00">
        <route edges="607269182" color="yellow"/>
        <stop parkingArea="1H" duration="18000.00"/>
    </vehicle>
    <vehicle id="1I" depart="17360.00">
        <route edges="451899892" color="yellow"/>
        <stop parkingArea="1I" duration="18000.00"/>
    </vehicle>
    <vehicle id="1J" depart="17360.00">
        <route edges="243082507#4" color="yellow"/>
        <stop parkingArea="1J" duration="18000.00"/>
    </vehicle>
    <vehicle id="1K" depart="17360.00">
        <route edges="607269174" color="yellow"/>
        <stop parkingArea="1K" duration="18000.00"/>
    </vehicle>
    <vehicle id="1L" depart="17360.00">
        <route edges="455030890" color="yellow"/>
        <stop parkingArea="1L" duration="18000.00"/>
    </vehicle>
    <vehicle id="1M" depart="17360.00">
        <route edges="561017136#1" color="yellow"/>
        <stop parkingArea="1M" duration="18000.00"/>
    </vehicle>
  
    <vehicle id="1P" depart="17360.00">
        <route edges="436519245" color="yellow"/>
        <stop parkingArea="1P" duration="18000.00"/>
    </vehicle>
    <vehicle id="1Q" depart="17360.00">
        <route edges="4864458#1" color="yellow"/>
        <stop parkingArea="1Q" duration="18000.00"/>
    </vehicle>
    <vehicle id="1R" depart="17360.00">
        <route edges="630097219#0" color="yellow"/>
        <stop parkingArea="1R" duration="18000.00"/>
    </vehicle>
    <vehicle id="2" depart="17360.00">
        <route edges="451902817" color="yellow"/>
        <stop parkingArea="2" duration="18000.00"/>
    </vehicle>
   
  
    <vehicle id="26" depart="17360.00">
        <route edges="456314148" color="yellow"/>
        <stop parkingArea="26" duration="18000.00"/>
    </vehicle>
    <vehicle id="28" depart="17360.00">
        <route edges="452676131" color="yellow"/>
        <stop parkingArea="28" duration="18000.00"/>
    </vehicle>
  
    </vehicle>
    <vehicle id="3" depart="17360.00">
        <route edges="454275963" color="yellow"/>
        <stop parkingArea="3" duration="18000.00"/>
    </vehicle>
    <vehicle id="30" depart="17360.00">
        <route edges="215446977#1" color="yellow"/>
        <stop parkingArea="30" duration="18000.00"/>
    </vehicle>
  
    <vehicle id="35" depart="17360.00">
        <route edges="464944660" color="yellow"/>
        <stop parkingArea="35" duration="18000.00"/>
    </vehicle>
   
    
    <vehicle id="39" depart="17360.00">
        <route edges="341093398#2" color="yellow"/>
        <stop parkingArea="39" duration="18000.00"/>
    </vehicle>
    <vehicle id="4" depart="17360.00">
        <route edges="459835305#0" color="yellow"/>
        <stop parkingArea="4" duration="18000.00"/>
    </vehicle>
   
    <vehicle id="41" depart="17360.00">
        <route edges="464080252" color="yellow"/>
        <stop parkingArea="41" duration="18000.00"/>
    </vehicle>
    
    <vehicle id="43" depart="17360.00">
        <route edges="341094444" color="yellow"/>
        <stop parkingArea="43" duration="18000.00"/>
    </vehicle>
    <vehicle id="44" depart="17360.00">
        <route edges="459551276" color="yellow"/>
        <stop parkingArea="44" duration="18000.00"/>
    </vehicle>
    <vehicle id="45" depart="17360.00">
        <route edges="434335538" color="yellow"/>
        <stop parkingArea="45" duration="18000.00"/>
    </vehicle>
    <vehicle id="46" depart="17360.00">
        <route edges="435627721" color="yellow"/>
        <stop parkingArea="46" duration="18000.00"/>
    </vehicle>
    <vehicle id="47" depart="17360.00">
        <route edges="452044715" color="yellow"/>
        <stop parkingArea="47" duration="18000.00"/>
    </vehicle>
    <vehicle id="48" depart="17360.00">
        <route edges="453483726" color="yellow"/>
        <stop parkingArea="48" duration="18000.00"/>
    </vehicle>
    <vehicle id="5" depart="17360.00">
        <route edges="452610967" color="yellow"/>
        <stop parkingArea="5" duration="18000.00"/>
    </vehicle>
    <vehicle id="50" depart="17360.00">
        <route edges="451072402#0" color="yellow"/>
        <stop parkingArea="50" duration="18000.00"/>
    </vehicle>
    <vehicle id="52" depart="17360.00">
        <route edges="453478509#1" color="yellow"/>
        <stop parkingArea="52" duration="18000.00"/>
    </vehicle>
    <vehicle id="53" depart="17360.00">
        <route edges="452652551" color="yellow"/>
        <stop parkingArea="53" duration="18000.00"/>
    </vehicle>
   
    <vehicle id="55" depart="17360.00">
        <route edges="22909967" color="yellow"/>
        <stop parkingArea="55" duration="18000.00"/>
    </vehicle>
    <vehicle id="6" depart="17360.00">
        <route edges="680923344" color="yellow"/>
        <stop parkingArea="6" duration="18000.00"/>
    </vehicle>
    <vehicle id="63" depart="17360.00">
        <route edges="453963142" color="yellow"/>
        <stop parkingArea="63" duration="18000.00"/>
    </vehicle>
    <vehicle id="65" depart="17360.00">
        <route edges="465416568" color="yellow"/>
        <stop parkingArea="65" duration="18000.00"/>
    </vehicle>
    <vehicle id="66" depart="17360.00">
        <route edges="329384213#2" color="yellow"/>
        <stop parkingArea="66" duration="18000.00"/>
    </vehicle>
    <vehicle id="68" depart="17360.00">
        <route edges="329384210" color="yellow"/>
        <stop parkingArea="68" duration="18000.00"/>
    </vehicle>
    <vehicle id="69" depart="17360.00">
        <route edges="356391517#0" color="yellow"/>
        <stop parkingArea="69" duration="18000.00"/>
    </vehicle>
    <vehicle id="7" depart="17360.00">
        <route edges="452652512#0" color="yellow"/>
        <stop parkingArea="7" duration="18000.00"/>
    </vehicle>
    <vehicle id="70" depart="17360.00">
        <route edges="453989310" color="yellow"/>
        <stop parkingArea="70" duration="18000.00"/>
    </vehicle>
    <vehicle id="71" depart="17360.00">
        <route edges="415626772#0" color="yellow"/>
        <stop parkingArea="71" duration="18000.00"/>
    </vehicle>
    <vehicle id="72" depart="17360.00">
        <route edges="41258630#0" color="yellow"/>
        <stop parkingArea="72" duration="18000.00"/>
    </vehicle>
    <vehicle id="73" depart="17360.00">
        <route edges="828600790#4" color="yellow"/>
        <stop parkingArea="73" duration="18000.00"/>
    </vehicle>
    <vehicle id="74" depart="17360.00">
        <route edges="48921991#1" color="yellow"/>
        <stop parkingArea="74" duration="18000.00"/>
    </vehicle>
    <vehicle id="75" depart="17360.00">
        <route edges="165334551" color="yellow"/>
        <stop parkingArea="75" duration="18000.00"/>
    </vehicle>
    <vehicle id="76" depart="17360.00">
        <route edges="332695584#3" color="yellow"/>
        <stop parkingArea="76" duration="18000.00"/>
    </vehicle>
    <vehicle id="77" depart="17360.00">
        <route edges="4320454#2" color="yellow"/>
        <stop parkingArea="77" duration="18000.00"/>
    </vehicle>
    <vehicle id="78" depart="17360.00">
        <route edges="465381659" color="yellow"/>
        <stop parkingArea="78" duration="18000.00"/>
    </vehicle>
 
    <vehicle id="80" depart="17360.00">
        <route edges="24221231#1" color="yellow"/>
        <stop parkingArea="80" duration="18000.00"/>
    </vehicle>
 
    <vehicle id="82" depart="17360.00">
        <route edges="454215276#1" color="yellow"/>
        <stop parkingArea="82" duration="18000.00"/>
    </vehicle>
    <vehicle id="83" depart="17360.00">
        <route edges="39368249#1" color="yellow"/>
        <stop parkingArea="83" duration="18000.00"/>
    </vehicle>
    <vehicle id="84" depart="17360.00">
        <route edges="458245870" color="yellow"/>
        <stop parkingArea="84" duration="18000.00"/>
    </vehicle>
    <vehicle id="85" depart="17360.00">
        <route edges="561733177" color="yellow"/>
        <stop parkingArea="85" duration="18000.00"/>
    </vehicle>
    <vehicle id="86" depart="17360.00">
        <route edges="36675287" color="yellow"/>
        <stop parkingArea="86" duration="18000.00"/>
    </vehicle>
    <vehicle id="87" depart="17360.00">
        <route edges="329989915#1" color="yellow"/>
        <stop parkingArea="87" duration="18000.00"/>
    </vehicle>
    <vehicle id="88" depart="17360.00">
        <route edges="329989915#2" color="yellow"/>
        <stop parkingArea="88" duration="18000.00"/>
    </vehicle>
    <vehicle id="89" depart="17360.00">
        <route edges="465380604#0" color="yellow"/>
        <stop parkingArea="89" duration="18000.00"/>
    </vehicle>
    <vehicle id="90" depart="17360.00">
        <route edges="457924062" color="yellow"/>
        <stop parkingArea="90" duration="18000.00"/>
    </vehicle>
    <vehicle id="91" depart="17360.00">
        <route edges="465381269" color="yellow"/>
        <stop parkingArea="91" duration="18000.00"/>
    </vehicle>
    <vehicle id="92" depart="17360.00">
        <route edges="828600802" color="yellow"/>
        <stop parkingArea="92" duration="18000.00"/>
    </vehicle>
    <vehicle id="93" depart="17360.00">
        <route edges="453999958" color="yellow"/>
        <stop parkingArea="93" duration="18000.00"/>
    </vehicle>
    <vehicle id="94" depart="17360.00">
        <route edges="19908076#2" color="yellow"/>
        <stop parkingArea="94" duration="18000.00"/>
    </vehicle>
    <vehicle id="95" depart="17360.00">
        <route edges="26699202#1" color="yellow"/>
        <stop parkingArea="95" duration="18000.00"/>
    </vehicle>
    <vehicle id="98" depart="17360.00">
        <route edges="20316498" color="yellow"/>
        <stop parkingArea="98" duration="18000.00"/>
    </vehicle>
    <vehicle id="99" depart="17360.00">
        <route edges="451899893" color="yellow"/>
        <stop parkingArea="99" duration="18000.00"/>
    </vehicle>
</routes>
