<?xml version="1.0" encoding="UTF-8"?>

<!-- generated on 05/29/20 17:07:17 by Eclipse SUMO netedit Version 1.3.1
<configuration xmlns:xsi="http://www.w3.org/2001/XMLSchema-instance" xsi:noNamespaceSchemaLocation="http://sumo.dlr.de/xsd/netconvertConfiguration.xsd">

    <input>
        <sumo-net-file value="C:\Users\hugue\Sumo\CarteMontreal\Montreal.net.xml"/>
    </input>

    <output>
        <output-file value="C:\Users\hugue\Sumo\CarteMontreal\Montreal.net.xml"/>
    </output>

    <processing>
        <geometry.max-grade.fix value="false"/>
        <offset.disable-normalization value="true"/>
        <opposites.guess.fix-lengths value="true"/>
        <lefthand value="false"/>
    </processing>

    <junctions>
        <no-turnarounds value="true"/>
        <junctions.corner-detail value="5"/>
        <junctions.limit-turn-speed value="5.5"/>
        <rectangular-lane-cut value="false"/>
    </junctions>

    <pedestrian>
        <walkingareas value="false"/>
    </pedestrian>

    <netedit>
        <additional-files value="C:\Users\hugue\Sumo\CarteMontreal\Quartier.add.xml"/>
    </netedit>

</configuration>
-->

<additional xmlns:xsi="http://www.w3.org/2001/XMLSchema-instance" xsi:noNamespaceSchemaLocation="http://sumo.dlr.de/xsd/additional_file.xsd">
    <poly id="101" color="red" fill="1" layer="128.00" shape="31465.550000,13227.840000 31264.420000,12431.380000 30870.220000,11570.560000 30403.610000,10806.280000 31417.280000,10178.770000 31755.170000,10798.240000 31803.440000,11063.720000 31682.760000,11256.810000 31674.720000,11377.480000 32342.460000,12495.740000 32374.640000,12640.550000 31481.640000,13227.840000"/>
    <poly id="102" color="red" fill="1" layer="128.00" shape="30384.540000,12156.390000 30344.650000,12003.470000 30324.700000,11837.250000 30185.080000,11651.080000 29985.610000,11238.860000 29899.180000,11019.450000 29746.260000,10687.010000 29746.260000,10607.220000 29673.120000,10527.440000 29666.470000,10407.760000 29792.800000,10288.080000 29985.610000,10128.510000 30091.990000,10048.720000 30191.730000,9962.290000 30258.210000,9862.560000 30311.400000,9796.070000 30976.280000,10441.000000 30404.490000,10786.740000 30869.900000,11571.290000 31255.530000,12442.290000 31459.560000,13255.530000 32369.730000,12645.180000 32380.440000,12559.510000 31695.130000,11392.350000 31695.130000,11306.690000 31716.550000,11231.730000 31791.500000,11135.360000 31855.750000,11081.820000 32433.980000,10803.410000 32519.640000,10407.220000 32755.220000,10268.020000 33344.150000,10096.690000 33216.010000,13357.100000 31642.770000,14321.900000 31518.770000,13832.850000 31518.770000,13657.560000 31337.440000,13004.770000 31137.970000,12351.980000 30956.640000,11862.390000 30884.110000,11807.990000 30382.430000,12170.650000"/>
    <poly id="103" color="red" fill="1" layer="128.00" shape="27769.170000,6498.570000 28968.460000,7772.810000 29364.650000,8800.770000 30992.260000,10460.500000 31420.580000,10171.390000 31773.940000,10792.450000 31827.480000,11060.150000 32405.710000,10792.450000 32491.370000,10428.380000 32716.240000,10246.340000 33069.600000,10171.390000 33465.790000,10021.480000 33605.000000,9935.810000 33679.950000,9871.570000 33733.490000,9796.610000 33733.490000,9625.280000 33712.080000,9496.790000 33583.580000,8907.850000 33487.210000,8115.460000 32791.190000,8136.880000 32587.740000,7922.720000 31238.540000,8490.240000 31045.800000,8522.370000 30853.060000,8393.870000 30521.110000,7901.310000 30381.910000,7558.650000 30414.630000,7084.190000 30445.980000,6582.510000 28974.910000,4172.750000 28166.950000,4475.730000 28141.700000,4803.970000 28545.680000,5359.440000 28318.450000,6142.150000 27762.970000,6470.380000"/>
    <poly id="104" color="red" fill="1" layer="128.00" shape="24519.710000,6935.140000 24733.870000,7343.990000 24802.010000,7577.620000 24967.490000,7606.820000 25016.170000,7752.840000 25084.310000,7859.920000 25181.650000,8005.940000 25395.810000,8239.560000 25843.600000,8599.740000 26164.840000,8619.210000 26388.730000,8726.290000 26992.270000,8872.310000 27118.810000,9057.260000 27284.300000,8901.510000 27362.180000,8774.960000 27625.010000,8502.400000 28102.000000,8210.360000 28374.560000,8025.410000 28783.410000,7850.180000 28919.690000,7743.110000 27761.290000,6497.090000 26758.640000,5679.390000 24548.910000,6954.610000"/>
    <poly id="105" color="red" fill="1" layer="128.00" shape="22956.700000,9936.550000 22866.010000,9366.460000 23202.880000,9172.110000 23449.050000,9366.460000 24122.800000,8964.810000 24161.670000,9029.590000 24485.580000,8900.020000 24472.620000,9599.680000 24537.410000,9819.940000 24926.100000,10415.950000 25146.370000,10260.470000 24900.190000,9819.940000 26727.070000,8822.280000 26986.200000,8887.070000 27219.420000,9223.940000 27413.770000,9392.370000 27582.210000,9353.500000 27724.730000,9431.240000 26908.460000,9949.510000 27361.950000,10688.030000 28165.250000,10817.600000 30147.610000,9664.460000 30303.090000,9781.070000 30082.830000,10014.290000 29953.270000,10117.940000 29733.000000,10299.340000 29642.310000,10441.860000 29745.960000,10584.380000 29745.960000,10675.080000 30264.220000,11828.210000 30432.660000,12385.350000 30419.700000,12514.910000 30212.400000,12709.260000 29720.050000,13007.270000 29551.610000,12903.610000 29175.870000,12825.870000 28890.820000,12683.350000 29137.000000,12592.650000 29137.000000,12489.000000 29551.610000,12191.000000 29124.040000,11685.690000 28553.950000,12035.520000 28385.520000,11957.780000 27776.560000,12385.350000 27582.210000,12152.130000 27595.160000,12281.700000 27439.680000,12372.390000 27426.730000,12514.910000 26597.510000,12851.790000 26377.240000,12709.260000 26195.850000,12825.870000 25988.550000,12812.920000 25379.590000,11413.600000 24420.800000,11776.390000 24446.710000,11439.520000 23954.360000,11439.520000 23967.320000,11063.780000 24563.320000,10454.820000 23721.140000,9599.680000 22956.700000,9962.460000"/>
    <poly id="106" color="red" fill="1" layer="128.00" shape="27864.110000,14085.790000 29477.670000,13052.800000 29597.430000,12994.440000 29737.990000,13049.760000 30444.830000,12609.260000 30464.650000,12535.020000 30498.320000,12467.100000 30499.020000,12409.820000 30437.640000,12299.750000 30390.330000,12173.910000 30914.400000,11819.790000 30971.110000,11925.770000 31071.670000,12170.230000 31129.070000,12369.140000 31227.650000,12716.260000 31341.750000,13086.830000 31415.350000,13331.850000 31490.610000,13584.360000 31493.280000,13601.870000 31500.070000,13738.030000 31512.370000,13887.400000 31626.560000,14435.250000 31683.920000,14730.740000 31706.950000,14843.280000 31721.850000,14914.600000 31759.150000,15085.000000 31797.000000,15269.920000 31843.900000,15413.200000 31957.260000,15723.640000 30713.500000,15873.920000 30545.690000,15884.410000 30401.950000,15868.980000 30255.010000,15830.750000 30227.790000,15818.640000 30127.400000,15770.410000 29999.770000,15678.740000 29895.970000,15569.810000 29748.030000,15385.900000 29336.390000,14869.630000 29173.180000,14662.680000 29031.840000,14532.560000 28942.620000,14483.820000 28831.050000,14429.920000 28738.910000,14402.810000 28575.430000,14375.930000 28413.070000,14374.420000 28334.270000,14375.270000 28281.180000,14369.370000 28206.600000,14345.770000 28135.500000,14305.670000 27892.280000,14109.630000 27880.440000,14100.220000 27864.110000,14085.790000"/>
    <poly id="107" color="red" fill="1" layer="128.00" shape="29822.730000,15529.410000 29452.820000,15753.300000 29589.100000,16016.130000 27320.970000,17427.630000 26567.500000,16871.840000 26453.900000,16813.300000 26298.650000,16762.760000 26171.400000,16717.120000 26012.340000,16628.600000 25987.340000,16600.200000 25681.290000,16070.360000 25564.770000,15843.440000 25008.450000,14600.780000 27122.840000,13700.170000 27465.920000,14279.600000 27862.780000,14088.110000 28134.420000,14306.980000 28207.710000,14347.540000 28281.960000,14370.910000 28335.910000,14376.650000 28577.040000,14377.740000 28691.690000,14397.490000 28829.210000,14431.440000 29007.420000,14522.420000 29041.200000,14543.320000 29076.410000,14576.240000 29165.360000,14657.410000 29212.850000,14715.500000 29558.630000,15154.040000 29847.000000,15512.590000"/>
    <poly id="108" color="red" fill="1" layer="128.00" shape="23771.510000,21211.930000 25864.730000,19606.460000 25927.760000,19580.180000 25899.340000,19523.680000 25634.930000,19059.220000 25342.620000,18542.580000 25243.840000,18345.430000 26933.040000,17349.240000 27071.400000,17269.280000 27026.720000,17226.390000 26565.290000,16872.340000 26455.560000,16815.630000 26409.920000,16800.870000 26296.810000,16764.150000 26172.940000,16721.110000 26010.650000,16629.360000 25964.080000,16592.480000 25708.210000,16137.030000 25495.350000,15710.120000 24493.260000,13437.600000 24469.520000,13381.210000 22547.770000,14132.860000 22541.300000,14135.440000 22189.750000,14270.660000 22146.350000,14284.940000 22089.060000,14300.190000 22020.430000,14315.630000 21941.630000,14327.170000 21851.680000,14333.820000 21763.560000,14335.310000 21682.670000,14328.030000 21575.910000,14300.450000 21444.360000,14266.050000 21372.980000,14250.700000 16520.060000,11611.880000 16434.550000,11562.360000 15650.940000,11398.560000 14861.140000,11261.490000 14622.380000,11335.690000 14409.270000,11403.190000 14297.700000,11551.580000 14464.950000,11717.570000 23813.240000,21107.600000"/>
    <poly id="109" color="red" fill="1" layer="128.00" shape="28607.690000,16619.720000 29721.320000,18450.780000 28732.950000,19045.180000 28805.530000,19214.280000 26457.970000,20571.300000 26380.440000,20474.580000 25245.400000,18343.700000 27076.460000,17272.910000 27322.740000,17433.530000 28596.980000,16662.560000"/>
    <poly id="110" color="red" fill="1" layer="128.00" shape="30819.360000,20458.520000 31957.540000,19975.650000 32147.240000,19734.220000 32681.840000,19492.790000 32250.710000,18578.790000 32305.410000,17735.480000 32266.360000,16812.650000 32252.890000,16610.960000 32244.780000,16540.460000 31957.540000,15681.590000 31297.230000,15805.720000 30935.620000,15848.790000 30741.820000,15872.550000 30549.500000,15887.400000 30402.490000,15871.060000 30255.420000,15831.930000 30125.450000,15772.700000 29999.710000,15682.400000 29847.370000,15516.910000 29455.370000,15753.410000 29596.010000,16018.070000 28616.930000,16624.340000 30633.070000,20020.000000 30819.360000,20441.270000"/>
    <poly id="111" color="red" fill="1" layer="128.00" shape="31596.180000,14393.710000 33249.440000,13396.050000 34831.150000,17790.060000 33437.880000,18392.850000 33331.580000,18453.490000 33267.540000,18475.270000 32432.320000,18854.410000 32274.990000,18591.610000 32367.200000,17619.660000 32315.460000,16550.460000 31849.840000,15308.800000 31677.390000,14343.070000"/>
    <poly id="112" color="red" fill="1" layer="128.00" shape="32412.210000,18898.510000 35257.680000,17570.620000 37458.170000,23356.400000 35769.860000,23489.190000 33152.030000,24058.280000 33057.190000,23868.580000 33417.610000,23621.970000 33152.030000,23242.580000 33550.400000,22958.030000 33569.370000,22749.370000 33038.220000,22407.910000 33114.090000,22180.270000 32753.670000,21478.390000 31179.180000,21781.910000 31179.180000,21459.420000 31482.700000,20738.570000 31463.730000,20624.750000 31179.180000,20378.150000 32013.850000,19979.780000 32222.520000,19714.200000 32734.700000,19486.570000 32431.180000,18898.510000"/>
    <poly id="113" color="red" fill="1" layer="128.00" shape="32832.150000,27752.200000 34898.530000,26487.230000 36783.640000,26073.840000 37038.010000,26420.740000 37151.320000,26962.830000 37204.350000,27529.500000 37326.230000,27980.160000 37260.050000,28244.560000 36942.700000,29557.130000 36899.260000,30321.450000 37219.970000,32692.520000 37445.740000,33921.190000 37196.050000,34293.000000 35640.510000,33741.480000 35613.980000,33562.430000 35565.950000,33265.510000 35499.390000,32852.480000 35201.810000,31765.920000 35109.600000,31535.950000 35019.150000,31214.470000 34965.380000,31018.650000 34950.170000,30982.910000 34804.740000,30493.640000 34887.450000,29627.720000 34918.180000,29183.020000 34540.070000,28971.830000 34256.700000,28780.150000 33921.170000,28535.330000 33567.090000,28282.820000 33320.780000,28105.330000 33099.480000,27945.050000 32918.990000,27817.310000 32832.150000,27752.200000"/>
    <poly id="114" color="red" fill="1" layer="128.00" shape="35365.880000,33618.610000 35641.130000,33742.300000 35641.440000,33740.550000 35492.780000,32854.950000 35326.260000,32289.970000 34800.610000,30497.440000 34922.490000,29228.110000 34916.960000,29193.930000 34916.410000,29187.350000 34473.670000,28937.530000 33718.620000,28395.220000 32394.010000,27436.160000 30050.720000,25181.400000 28999.030000,24127.180000 27489.050000,25898.350000 28555.490000,26950.560000 28881.800000,27348.940000 30103.180000,28532.520000 32324.380000,30257.590000 35279.380000,33582.750000 35368.360000,33620.330000"/>
    <poly id="115" color="red" fill="1" layer="128.00" shape="33525.460000,23997.410000 35871.030000,23496.550000 36805.730000,26069.800000 36629.820000,26098.710000 36535.960000,26111.870000 34892.760000,26481.210000 32801.660000,27727.420000 32397.910000,27432.100000 32352.660000,27393.190000 31643.280000,26708.050000 30916.360000,25916.060000 33947.630000,24807.050000 33577.960000,24030.750000"/>
    <poly id="116" color="red" fill="1" layer="128.00" shape="31140.640000,21811.610000 32717.510000,21453.400000 32726.640000,21460.640000 33109.430000,22152.930000 32972.660000,22410.370000 33503.630000,22756.310000 33523.370000,22817.840000 33527.770000,22893.070000 33462.000000,22992.680000 33423.920000,23017.300000 33102.010000,23204.860000 33335.810000,23678.080000 33001.770000,23848.610000 33155.240000,24098.330000 33524.670000,23998.530000 33970.250000,24815.830000 30899.030000,25991.440000 28616.350000,23810.930000 28290.690000,23695.670000 28253.800000,23631.540000 28388.340000,23551.490000 31146.440000,21815.040000"/>
    <poly id="117" color="red" fill="1" layer="128.00" shape="29693.900000,18470.580000 30255.230000,19380.930000 30627.900000,20023.240000 30807.520000,20451.550000 31128.760000,20355.180000 31428.580000,20622.870000 31407.170000,20837.030000 31139.470000,21458.090000 31139.470000,21811.460000 30044.380000,22513.630000 28248.490000,23630.740000 28171.910000,23467.090000 28156.200000,23423.840000 26461.370000,20577.830000 28810.920000,19220.770000 28759.780000,19078.040000 29708.270000,18457.210000"/>
    <poly id="118" color="red" fill="1" layer="128.00" shape="25869.800000,19604.000000 23786.120000,21220.530000 25133.680000,23553.380000 27474.560000,25898.690000 28954.200000,24134.510000 28612.750000,23812.020000 28290.260000,23698.200000 25881.100000,19600.730000"/>
    <poly id="119" color="red" fill="1" layer="128.00" shape="24514.100000,13363.870000 24349.370000,13428.990000 24020.280000,13556.800000 23849.640000,13625.400000 23650.440000,13701.670000 23428.950000,13789.080000 23225.230000,13867.780000 23060.160000,13932.560000 22650.270000,14091.360000 22335.110000,14215.340000 22228.870000,14255.360000 22148.450000,14282.980000 22088.180000,14299.060000 22020.430000,14313.840000 21940.830000,14325.050000 21851.800000,14331.230000 21765.370000,14332.850000 21685.280000,14326.680000 21373.260000,14245.750000 21226.930000,14175.360000 21021.510000,14063.170000 20268.800000,13660.810000 18923.920000,12939.210000 17446.000000,12153.970000 16435.790000,11561.220000 15649.090000,11395.590000 14861.510000,11258.470000 14411.610000,11398.740000 15952.240000,9930.430000 15917.920000,9733.150000 15867.840000,9570.720000 15971.260000,9397.700000 15361.870000,9004.350000 16387.290000,7882.350000 17908.160000,7584.030000 19240.860000,9080.580000 20466.710000,8175.870000 20658.270000,7963.160000 21426.880000,7196.390000 21643.050000,7231.940000 22307.010000,7217.520000 22309.090000,7353.040000 22508.900000,7411.610000 22727.860000,8607.990000 22870.120000,9462.380000 22642.730000,9574.200000 22190.960000,9978.580000 22302.890000,10054.180000 22485.810000,10162.010000 22714.130000,10377.050000 22844.360000,10558.960000 22924.610000,10689.770000 23106.430000,10854.670000 23564.070000,11360.770000 24017.170000,12236.180000 24512.010000,13361.430000"/>
    <poly id="120" color="red" fill="1" layer="128.00" shape="22196.290000,9978.200000 22487.800000,10162.550000 22540.380000,10166.730000 23611.260000,11341.620000 24987.410000,14607.410000 27122.070000,13696.500000 26895.210000,13313.120000 26434.560000,12742.130000 26151.070000,12860.260000 25976.940000,12802.750000 25562.800000,11790.580000 25328.130000,11398.570000 24406.670000,11793.800000 24426.540000,11447.430000 23953.070000,11447.200000 23963.300000,11033.370000 24515.630000,10505.260000 23771.980000,9650.650000 23601.420000,9660.190000 22950.660000,9947.570000 22906.250000,9715.060000 22869.460000,9463.490000 22645.100000,9575.990000 22196.290000,9978.200000"/>
    <poly id="121" color="red" fill="1" layer="128.00" shape="27466.040000,14278.330000 27862.830000,14086.220000 29582.490000,13000.300000 29502.530000,12890.610000 29450.400000,12864.320000 29220.470000,12856.860000 29032.500000,12755.960000 28889.520000,12678.890000 29083.850000,12602.060000 29078.910000,12563.380000 29093.720000,12529.450000 29157.260000,12488.730000 29529.610000,12222.650000 29416.120000,11975.710000 29167.510000,11673.200000 28851.110000,11873.150000 28496.320000,12082.850000 28444.030000,12019.150000 27764.880000,12416.590000 27588.970000,12186.340000 27570.940000,12199.560000 27625.180000,12284.160000 27500.770000,12337.690000 27521.660000,12369.380000 27420.930000,12404.920000 27500.480000,12553.960000 26542.420000,12909.780000 26897.290000,13313.360000 27466.040000,14278.330000"/>
    <poly id="122" color="red" fill="1" layer="128.00" shape="28934.320000,7752.400000 28807.990000,7858.780000 28661.720000,7905.320000 27577.970000,8563.550000 27185.690000,9035.610000 27125.850000,9088.800000 27218.930000,9188.540000 27371.850000,9361.400000 27577.970000,9361.400000 27710.940000,9414.590000 27737.540000,9434.540000 26913.090000,9939.850000 27351.910000,10624.670000 27531.420000,10684.510000 27784.080000,10697.810000 27937.000000,10717.760000 28149.760000,10790.890000 30197.590000,9647.300000 29359.840000,8809.550000 28940.970000,7765.700000"/>
    <poly id="123" color="red" fill="1" layer="128.00" shape="24909.060000,10381.750000 24549.390000,9752.340000 24499.440000,9572.510000 24494.440000,9287.770000 24519.420000,8848.180000 25453.550000,8288.710000 25818.210000,8603.410000 26142.900000,8623.390000 26402.660000,8743.280000 26712.370000,8808.220000 24894.070000,9822.270000 25133.850000,10271.850000 24919.050000,10371.760000"/>
    <poly id="124" color="red" fill="1" layer="128.00" shape="22847.530000,9342.100000 23211.640000,9188.790000 23460.770000,9351.680000 24179.410000,8949.240000 24169.830000,9045.060000 25434.630000,8307.260000 25233.410000,8106.040000 25089.690000,7914.400000 25003.450000,7770.680000 24945.960000,7617.370000 24811.810000,7598.200000 24715.990000,7329.910000 24601.010000,7138.270000 24524.360000,7013.710000 24438.120000,6937.050000 24438.120000,6745.420000 24371.050000,6678.340000 24361.470000,6457.960000 24524.360000,6208.830000 24351.880000,6113.010000 23931.660000,6397.020000 23719.480000,5978.870000 22952.930000,5681.830000 22521.750000,7416.150000 22866.690000,9313.360000"/>
    <poly id="125" color="red" fill="1" layer="128.00" shape="24467.630000,6951.500000 26665.570000,5662.700000 26181.030000,5233.100000 25581.590000,5367.980000 25586.580000,5497.860000 23768.280000,6057.330000 23948.110000,6382.030000 24362.730000,6102.290000 24547.550000,6217.180000 24377.710000,6466.950000 24377.710000,6671.760000 24472.620000,6766.670000 24457.640000,6941.510000"/>
    <poly id="126" color="red" fill="1" layer="128.00" shape="22959.040000,5667.700000 23738.310000,5957.430000 23763.290000,6037.350000 25561.610000,5487.870000 25571.600000,5343.000000 26141.060000,5218.120000 25032.100000,4468.820000 24982.150000,4613.680000 22974.020000,5677.690000"/>
    <poly id="127" color="red" fill="1" layer="128.00" shape="28952.320000,4098.240000 28966.450000,4104.400000 29931.060000,5652.350000 30287.530000,6025.800000 30457.280000,6382.270000 30469.700000,7142.050000 30421.350000,7144.640000 30420.490000,7159.600000 30383.570000,7512.440000 30489.150000,7718.660000 30573.110000,7936.810000 30723.490000,8188.500000 30822.700000,8327.190000 30940.590000,8431.160000 31006.220000,8458.740000 31097.120000,8488.780000 31252.500000,8483.610000 31979.320000,8151.500000 32596.110000,7926.980000 32839.940000,8146.640000 34262.200000,8078.520000 33207.200000,4090.660000 29845.420000,3393.080000 29784.060000,3443.350000 29767.410000,3454.770000 28952.320000,4098.240000"/>
    <poly id="128" color="red" fill="1" layer="128.00" shape="23622.420000,3042.770000 23637.580000,3276.420000 23755.920000,3583.820000 23844.720000,3640.590000 26329.980000,5301.400000 27760.920000,6493.850000 28279.990000,6185.220000 28568.340000,5429.670000 28112.360000,4839.870000 28156.400000,4424.190000 28904.400000,4123.420000 29993.110000,3276.390000 28336.570000,1700.140000 25111.250000,2281.270000 23633.010000,3014.680000"/>
    <poly id="129" color="red" fill="1" layer="128.00" shape="19162.920000,6709.070000 20478.800000,8093.300000 21418.710000,7187.570000 22307.350000,7204.660000 22324.440000,7341.370000 22478.240000,7392.640000 22926.160000,5641.000000 23082.280000,5573.200000 23489.520000,5325.840000 24910.810000,4608.370000 24914.280000,4474.650000 23752.270000,3582.970000 23545.350000,3059.970000 19943.890000,3879.120000 19877.170000,4200.260000 19612.190000,4509.470000 19685.280000,4658.100000 19165.050000,6697.950000 19163.780000,6708.480000 19178.950000,6720.280000 19208.450000,6751.460000"/>
    <poly id="130" color="red" fill="1" layer="128.00" shape="13429.370000,9419.700000 15159.670000,10651.350000 15948.930000,9925.650000 15900.320000,9681.300000 15861.110000,9575.290000 15965.840000,9398.560000 15356.730000,9004.000000 16386.340000,7880.370000 17913.480000,7579.560000 18029.660000,7704.080000 19244.260000,9070.500000 19943.840000,8663.200000 20458.860000,8174.730000 19153.170000,6717.220000 19682.690000,4646.420000 19606.090000,4503.510000 19870.190000,4206.400000 17851.350000,4212.230000 16179.880000,3187.600000 14906.530000,4377.560000 14892.480000,4873.120000 14729.430000,5780.610000 14710.760000,6650.080000 14428.990000,7071.080000 14811.190000,7347.000000 14608.990000,7642.910000 13414.980000,9365.670000"/>
    <poly id="131" color="red" fill="1" layer="128.00" shape="9698.030000,6854.530000 13325.270000,9379.070000 13365.190000,9407.330000 14810.280000,7348.260000 14425.010000,7071.000000 14705.890000,6648.670000 14681.740000,6392.590000 14752.080000,5422.380000 14889.860000,4876.030000 14396.770000,2574.110000 11896.600000,2799.690000 11638.150000,2712.660000 10872.080000,5249.010000 10024.460000,6387.790000 10011.310000,6398.320000 9739.290000,6768.400000 9698.030000,6854.530000"/>
    <poly id="132" color="red" fill="1" layer="128.00" shape="9678.720000,6845.760000 15157.790000,10656.070000 14292.230000,11515.010000 12318.470000,10814.930000 12286.290000,10819.910000 12033.160000,11176.330000 11727.870000,11584.620000 11672.220000,11677.050000 11244.670000,11406.280000 10730.540000,11180.850000 10371.360000,10878.720000 10652.880000,10460.330000 9453.580000,9577.840000 9411.870000,9544.000000 9197.280000,9445.670000 9929.620000,8671.560000 8857.420000,7983.350000 9678.720000,6845.760000"/>
    <poly id="133" color="red" fill="1" layer="128.00" shape="12309.670000,10814.510000 14297.310000,11530.440000 14218.760000,11865.030000 14055.300000,11860.340000 14003.850000,11877.490000 12685.880000,13091.070000 11248.560000,12483.350000 11711.590000,11624.810000 12319.310000,10785.570000"/>
    <poly id="134" color="red" fill="1" layer="128.00" shape="2819.030000,9209.720000 4225.140000,7452.080000 6375.650000,7865.650000 8567.530000,10098.870000 8919.050000,12704.310000 7388.880000,13386.680000 2839.710000,9168.360000"/>
    <poly id="135" color="red" fill="1" layer="128.00" shape="8180.040000,9245.500000 7310.330000,8434.910000 7025.910000,7730.000000 7227.050000,7476.840000 7539.550000,7681.250000 7566.140000,7771.650000 7613.050000,7938.380000 7650.780000,8090.830000 7718.600000,8235.120000 7799.750000,8328.130000 8133.770000,8662.790000 8399.030000,8922.210000 8303.220000,9094.120000 8180.040000,9245.500000"/>
    <poly id="136" color="red" fill="1" layer="128.00" shape="1664.640000,6795.500000 3202.090000,8130.110000 5180.970000,6697.120000 7026.100000,7728.280000 7225.900000,7474.200000 7395.580000,7585.300000 7462.460000,7625.110000 7538.730000,7678.040000 7584.350000,7827.440000 7648.830000,8068.510000 7695.380000,8181.800000 7721.180000,8235.650000 7905.140000,8430.820000 8401.670000,8921.750000 8185.110000,9248.260000 8289.540000,9385.280000 8327.760000,9415.690000 9700.160000,12596.610000 9912.270000,12570.610000 10437.840000,12556.670000 10849.260000,12441.360000 11248.640000,12421.650000 11675.390000,11684.190000 11241.890000,11407.900000 10729.640000,11185.770000 10362.830000,10876.390000 10434.770000,10788.900000 10644.300000,10462.340000 9608.860000,9694.990000 9406.180000,9547.680000 9280.970000,9483.010000 9192.980000,9447.860000 9920.070000,8676.310000 8850.550000,7984.970000 9167.460000,7534.450000 8032.150000,6614.090000 8059.700000,6577.450000 8115.430000,6498.100000 7667.610000,6190.330000 6955.790000,5692.560000 6685.450000,5648.810000 6430.260000,5537.200000 5394.160000,4960.800000 5130.710000,4926.390000 4725.590000,4912.050000 4121.270000,4915.410000 3057.840000,4373.880000 2747.100000,5169.630000 2587.510000,5229.800000 1757.970000,6193.790000 1665.720000,6796.740000"/>
    <poly id="137" color="red" fill="1" layer="128.00" shape="5442.250000,3644.760000 9242.300000,4899.520000 10840.130000,5264.070000 9169.540000,7530.960000 8034.860000,6615.080000 8114.940000,6495.640000 7189.540000,5852.400000 7141.190000,5817.500000 6954.740000,5692.770000 6686.330000,5647.710000 6427.920000,5533.750000 5396.470000,4960.120000 5192.820000,4930.560000 5006.940000,4916.160000 4136.650000,4911.650000 5352.450000,3727.360000 5442.250000,3644.760000"/>
    <poly id="138" color="red" fill="1" layer="128.00" shape="6235.470000,963.380000 10714.570000,2362.230000 11631.880000,2717.480000 10870.000000,5249.830000 9256.310000,4894.020000 5442.900000,3640.840000 6235.470000,963.380000"/>
    <poly id="139" color="red" fill="1" layer="128.00" shape="4949.580000,3324.300000 5430.590000,3659.440000 6233.070000,963.750000 2898.420000,-0.480000 2916.730000,99.880000 2919.780000,251.140000 2925.160000,429.120000 2947.200000,1909.340000 3153.930000,1976.380000 3316.120000,2075.360000 4949.580000,3324.300000"/>
    <poly id="140" color="red" fill="1" layer="128.00" shape="4128.240000,4910.790000 4122.470000,4881.770000 4124.800000,4912.000000 4116.000000,4904.690000 3055.120000,4369.560000 1554.340000,3398.150000 1399.490000,3171.880000 1048.810000,2648.320000 1121.450000,2493.280000 1318.330000,2052.150000 1648.780000,1591.410000 1651.400000,1514.920000 1649.110000,1399.130000 1667.400000,1289.650000 1660.390000,1203.950000 1553.040000,969.930000 1515.140000,977.650000 1271.510000,568.960000 1096.700000,779.050000 1002.810000,941.600000 707.140000,372.670000 987.120000,-125.950000 2915.270000,99.750000 2945.700000,1911.360000 3157.340000,1979.000000 3316.720000,2077.870000 4776.750000,3192.990000 5107.440000,3458.550000 5429.490000,3650.860000 4128.240000,4910.790000"/>
    <poly id="141" color="red" fill="1" layer="128.00" shape="-323.190000,3582.190000 703.970000,372.330000 1003.590000,949.500000 1095.850000,792.090000 1270.060000,570.180000 1514.780000,979.900000 1552.550000,971.690000 1636.310000,1152.340000 1656.840000,1207.360000 1665.050000,1289.480000 1646.990000,1398.690000 1647.730000,1590.030000 1313.830000,2054.280000 1046.360000,2649.500000 1553.150000,3401.030000 3053.890000,4371.920000 2744.480000,5168.400000 2587.630000,5226.950000 1704.110000,5020.740000 982.600000,4526.640000 -297.510000,3595.030000"/>
</additional>
