<?xml version="1.0" encoding="UTF-8"?>
<!-- generated on 2021-05-05 16:09:06.930911 by edgesInDistricts.py v1_7_0+0000-714814baed
  options: -n C:\Users\hugue\MontrealTrafficSimulation\SUMO\Carte\Carte_Simulation.net.xml -t C:\Users\hugue\MontrealTrafficSimulation\SUMO\TAZ\poly_pont\poly_pont.add.xml,C:\Users\hugue\MontrealTrafficSimulation\SUMO\TAZ\poly_secteur_montreal\poly_secteur_montreal.add.xml
-->
<tazs xmlns:xsi="http://www.w3.org/2001/XMLSchema-instance" xsi:noNamespaceSchemaLocation="http://sumo.dlr.de/xsd/taz_file.xsd">
    <taz id="101" edges="-103935601 -103935602#0 -103935602#1 -111771067#0 -111771067#1 -111771067#2 -111771067#3 -111771067#4 -111771067#5 -111771070 -114875712 -114875727 -118773309#0 -133806981#0 -133806981#1 -134811810#3 -134811810#4 -134811810#5 -134811810#6 -165217827#3 -165334551 -165334552#0 -165334552#1 -165334553 -219132791#0 -219132791#1 -219132792#0 -219132792#1 -219132792#2 -24221231#1 -25367384 -329384201#0 -329384201#1 -329384201#2 -329384203#0 -329384203#1 -329384203#2 -329384210#0 -329384210#1 -329988460#0 -329988460#1 -329988460#2 -329988460#3 -354710422#0 -354710422#1 -354710423#0 -354710423#1 -354710423#2 -354710423#3 -356391598 -361607072#0 -361607072#1 -36606095#0 -36606095#1 -36606095#2 -36606095#3 -36606095#4 -36606095#5 -36672938#1 -36672938#2 -36672938#3 -36672938#4 -36672938#5 -36672938#6 -36672938#7 -36672938#8 -36672938#9 -37722302#1 -37722302#2 -37722302#3 -377233443#0 -377233443#1 -396642608#1 -41258976#2 -41551807#0 -41551807#1 -41551807#2 -453989316#0 -453989316#1 -455083987 -455083993#1 -455083993#2 -455083994#1 -455083996 -456315708 -456315709 -456318009 -456874507 -456874546#0 -456874546#1 -456874546#2 -461254932#1 -461254932#2 -461254932#3 -461254932#4 -461254934#3 -464718640 -464718641 -465380604#0 -465380604#1 -465380605 -465381269#0 -465381269#1 -465381271 -465414042 -465414045 -465414050 -465653666#0 -465653666#1 -465653668 -465653669 -465653670 -465656094#0 -465656094#1 -466675150 -48921999#0 -48921999#1 -48921999#2 -561741709 -687970467 103896396#2 103896396#3 103896396#4 103935601 103935602#0 103935602#1 103974912 103974914#0 103974914#1 103974914#3 103974914#4 103974914#5 103974914#6 104476236 104476237 107613002#0 107613002#1 107613002#2 111771067#0 111771067#1 111771067#2 111771067#3 111771067#4 111771067#5 111771070 113861079#0 113861079#1 113861079#2 114875712 114875727 114876252 115790308#2 115790308#3 118116148 118773309#0 126011883#0 126011883#1 127790962 132093451#0 132093451#1 132093451#2 133806980#0 133806980#1 133806980#2 133806980#3 133806980#4 133806981#0 133806981#1 133806982 134811808#1 134811808#2 134811808#3 134811810#3 134811810#4 134811810#5 134811810#6 13503101#0 13503101#1 13503101#2 13503101#3 15834714 15915825#0 164974773#0 164974773#1 165217827#3 165265049#0 165265049#1 165265049#2 165265049#3 165265049#4 165265049#5 165265049#6 165265049#7 165265049#8 165265049#9 165325225#0 165325226#0 165325226#1 165325231#0 165325231#1 165325231#2 165325231#3 165325606#0 165325606#1 165334551 165334552#0 165334552#1 165334553 165337364#10 165337364#11 165337364#12 165337364#13 165337364#2 165337364#5 165337364#6 165337364#7 176180511 19652259 19652361 19894605#0 19894605#1 19894605#2 19894605#3 19894612 19895957 19895958 19896202#0 19896202#1 19896203#4 19896203#5 19899867 19914255 19914256 200638843#11 20318110 215446976#2 219132791#0 219132791#1 219132792#0 219132792#1 219132792#2 219132793#0 219132793#1 219132794#0 219132794#1 219132794#2 24221231#1 25367384 274693147#0 274693147#1 274693147#2 274693150#0 274693150#1 300414148#0 300414148#1 300627772#1 308658929#0 308658929#1 308658929#2 308658929#3 308658929#4 312955853 312955854#0 312955854#1 312955854#2 312955854#3 312955854#4 312955854#5 312955854#6 313639754 313639760 329384201#0 329384201#1 329384201#2 329384202#0 329384202#1 329384203#0 329384203#1 329384203#2 329384205 329384209#0 329384209#1 329384210#0 329384210#1 329384211#0 329384211#1 329384211#2 329384211#3 329384213#0 329384213#1 329384213#2 329384213#3 329384213#4 329384215#0 329384215#1 329384215#2 329384215#3 329384216#0 329384216#1 329384217#1 329384217#10 329384217#2 329384217#3 329384217#4 329384217#5 329384217#6 329384217#7 329384217#8 329384217#9 329694554#10 329694554#13 329694554#14 329694554#15 329694554#16 329694554#17 329694554#18 329694554#19 329694554#22 329988459#0 329988459#1 329988459#2 329988459#3 329988459#4 329988459#5 329988460#0 329988460#1 329988460#2 329988460#3 329989226#0 329989226#1 329989915#0 329989915#1 329989915#2 329989915#3 329989915#4 329989915#5 329989915#6 329989915#7 330153470#1 330153472#1 331089332#1 331089332#2 331089332#3 332695584#1 332695584#2 332695584#3 332695584#4 332695584#5 332695584#6 332695584#7 332695584#8 332695584#9 34144392#1 34144392#2 34287015 34287039 34287041 35165792#0 35165792#1 35165799 352905364#0 352905364#1 352905364#2 352905364#3 352905364#4 352905364#5 354710422#0 354710422#1 354710423#0 354710423#1 354710423#2 354710423#3 35565810#0 35565810#1 356391517#0 356391517#1 356391598 356979511 35928368#0 35928368#1 35928368#2 35928368#3 35928368#4 361607071 361607072#0 361607072#1 36606092 36606094#0 36606094#1 36606095#0 36606095#1 36606095#2 36606095#3 36606095#4 36606095#5 366701672 36672936#0 36672936#1 36672937#0 36672937#1 36672938#1 36672938#2 36672938#3 36672938#4 36672938#5 36672938#6 36672938#7 36672938#8 36672938#9 36675287 37722302#1 37722302#2 37722302#3 377233441#0 377233441#1 377233442#0 377233442#1 377233443#0 377233443#1 385879098#0 385879098#1 385879098#2 385879098#3 385879098#4 39368249#1 39368249#2 39368249#3 39368249#4 39368250 39442470#0 39442470#1 39442470#2 396642608#1 396642609#0 396642609#1 396642609#2 399681575 402163247 41258626 41258628#0 41258628#1 41258633#0 41258633#1 41258633#2 41258633#3 41258633#4 41258971#0 41258971#1 41258973#2 41258976#2 41551807#0 41551807#1 41551807#2 415626770#0 415626770#1 415626770#2 415626770#3 415626770#4 415626772#0 415626772#1 415626772#2 422539626#0 422539626#1 4320454#0 4320454#1 4320454#2 4320454#3 4320454#4 4320454#5 4320454#6 4320454#7 4320454#8 4320462#1 4320463 439879818#0 439879818#1 439879818#2 439879818#3 439879818#4 439879818#5 439879818#6 439879818#7 439879818#8 450724839#0 450724839#1 450724839#2 450724839#3 450956616#0 450956616#1 453959371#0 453959371#1 453963142 453981160#0 453981160#1 453981161#0 453981161#1 453981162#0 453989310#0 453989310#1 453989316#0 453989316#1 453989322#0 453989323#0 453989323#1 453989323#2 453989323#3 453989324#0 453989324#1 453989325#1 453989325#2 454215274 454215275#0 454215275#1 454215276#1 454215277#0 454238784 454238785#1 454238786#1 454238787#0 454245382#1 455083967#0 455083967#1 455083969 455083970#0 455083970#1 455083970#2 455083971#0 455083971#1 455083972#0 455083972#1 455083973 455083974#0 455083974#1 455083975#0 455083975#1 455083975#2 455083977#0 455083978#0 455083979#1 455083980#1 455083980#2 455083980#3 455083981#1 455083982#0 455083982#1 455083983#0 455083983#1 455083983#2 455083984#0 455083984#1 455083984#2 455083985 455083986 455083987 455083989 455083992 455083993#1 455083993#2 455083994#1 455083996 455084002#0 455084002#1 455084003#0 455084003#1 456314146 456314147#0 456314148 456314150#0 456315708 456315709 456316923#0 456316923#1 456316924 456318007 456318008#0 456318008#1 456318009 456874507 456874546#0 456874546#1 456874546#2 458245869#0 458245870 458264621 461254932#1 461254932#2 461254932#3 461254932#4 461254933#1 461254933#2 461254933#4 461254933#5 461254934#3 463676555#0 463676555#1 463676555#2 463676555#3 463676555#4 464718640 464718641 464936533#1 464936534#0 464943210#1 464943212#0 465380604#0 465380604#1 465380605 465381269#0 465381269#1 465381271 465414042 465414045 465414050 465416566#0 465416566#1 465416566#2 465416567#0 465416567#1 465416567#3 465416568#0 465416568#1 465416569#0 465416569#1 465416569#2 465416571#0 465416571#1 465416571#2 465416572#0 465416572#1 465416572#2 465416573#1 465416573#2 465416574#0 465416574#1 465416574#2 465416576#1 465416576#2 465416576#3 465416577#0 465416577#1 465416577#2 465416578#1 465416578#2 465416578#3 465416578#4 465418900 465649268#0 465649268#1 465649963#0 465649963#1 465649963#2 465649963#3 465649964#0 465649964#1 465649964#2 465649964#3 465649965#0 465649965#1 465653666#0 465653666#1 465653668 465653669 465653670 465653989 465656094#0 465656094#1 466675150 4686990#2 4686990#3 4686990#4 4687530#1 4687530#2 473731043 474555858 475694576#1 475694576#2 479129085#0 479129085#1 479129089#0 479129089#1 479129093 479572754#0 479572754#1 48678926 4883068#0 4883068#1 4883068#2 4883068#3 4883068#4 4883068#5 48921991#2 48921991#3 48921991#4 48921991#5 48921992#0 48921992#1 48921997#0 48921997#1 48921997#2 48921997#3 48921997#4 48921997#5 48921997#6 48921997#7 48921997#8 48921999#0 48921999#1 48921999#2 546047308#0 546047308#1 546047309#1 546047309#2 546096657 546096658 548252184 548252185#0 548252185#1 548252186 561726591#0 561726591#1 561726592#0 561726592#1 561733176 561741709 561741710 561741711#0 561741711#1 561741711#2 575535139 60116378#0 60116378#1 60116378#2 60116380#1 60116380#2 60116380#4 60116380#5 60116380#6 632315307 632315308#0 632315309 632315310 673699710#0 673699710#1 673699710#2 673699710#3 673699710#4 680327781#0 680327781#1 680327781#2 687970467 727853364#2 727853364#3 727853364#4 741889015 741889016 794905835#0 794905835#1 794905835#2 794905835#3 794905835#4 794905835#5 794905835#6 794905835#7 80194350#0 80194350#1 828600790#0 828600790#1 828600790#2 828600790#5 828600790#6 828600790#7 828600790#8 828600790#9 828600801#0 828600801#1 828600801#2 828600801#3 828600801#4 828600801#5 828600802#0 828600802#1 828600802#2 828600802#3 828600802#4 828600802#5 883378245 884573683#0 884573683#1 884573683#2 884573684#0 884573684#1"/>
    <taz id="102" edges="-111771059#0 -111771059#1 -118773309#1 -129811153#0 -129811153#1 -133750660#1 -133750660#2 -133750660#3 -134811809#0 -134811809#1 -143920958#0 -143920958#1 -143920958#2 -143920958#3 -165217769#0 -165217769#1 -165217769#2 -165217827#0 -165217827#1 -165217827#2 -165217827#3 -165217870#1 -165217870#2 -165257881#1 -191563437#2 -19900941 -219132791#1 -222088906#0 -222088906#1 -263213891#0 -263213891#1 -263213891#2 -329795964#0 -329795964#1 -329989911#0 -329989911#1 -329989914#0 -329989914#1 -329989914#2 -331089342#0 -331089342#1 -331089342#2 -331089342#3 -331089342#4 -331089342#5 -331089342#6 -331089342#7 -332017012#0 -332017012#1 -332017012#10 -332017012#11 -332017012#12 -332017012#13 -332017012#14 -332017012#2 -332017012#3 -332017012#4 -332017012#5 -332017012#6 -332017012#7 -332017012#8 -332017012#9 -352392846 -360802894#1 -374956183#0 -374956183#1 -374956183#2 -374956183#3 -374956183#4 -374956185#0 -374956185#1 -377233440#0 -377233440#1 -377233440#2 -37723610#1 -38911509#0 -38911509#1 -38911509#2 -38911509#3 -38911509#4 -39442471#0 -39442471#1 -39442471#2 -39442471#3 -39442471#4 -39442471#5 -39442471#6 -39442471#7 -39442471#8 -396642608#1 -41258974#0 -41258974#1 -422539631#0 -422539631#1 -422539631#2 -4320786#0 -4320786#1 -440434601 -453745799 -453989311 -453989312 -453989313 -454827462#0 -454827462#1 -455083998#0 -455083998#1 -455083999#0 -455083999#1 -455478683#0 -456338617 -456343514 -456343516 -456345788 -456345791#0 -456345791#1 -456365232 -456365233 -456365234#0 -456365234#1 -457894390#0 -457894390#1 -457894390#2 -457894390#3 -457894390#4 -457924060 -458271793#1 -458271794 -458438675 -458438683 -458450993 -458450994#0 -458450994#1 -458454760 -458454763 -458454765#0 -458454765#1 -458454765#2 -458454765#3 -461254934#1 -461254934#2 -461254934#3 -461254935#1 -461254935#2 -464706886 -465401969 -465408857#0 -465408857#1 -465408857#2 -465408857#3 -465408858#1 -465408860#1 -465408862#0 -465408862#1 -465408862#2 -465408862#3 -465408862#4 -465408864#0 -465408864#1 -465408864#2 -465408864#3 -465408864#4 -465411709 -465411710#0 -465411711#0 -465411711#1 -465411712#0 -465411712#1 -465411713#0 -465411714#0 -465411714#1 -465411715#1 -465411715#2 -465411715#3 -465413237 -465413238 -465413240#0 -465413240#1 -465413243#1 -465413249#0 -465413249#1 -466654181#0 -466654181#1 -466654181#2 -466654181#3 -466654181#4 -466654181#5 -476268107 -480646021 -480646026#0 -480646026#1 -480646026#2 -480646026#3 -480646026#4 -480646026#5 -480646026#6 -480646028#0 -480646028#1 -480646028#2 -480646028#3 -480646028#4 -51431607 -51431608#0 -51431608#1 -51431608#2 -51431608#3 -51431608#4 -533386017#0 -533386017#1 -561741709 -588291335#0 -588291335#1 -60116379#0 -60116379#1 -60116379#2 -764000673#0 -764000673#1 -764000673#2 -764000673#3 -764000673#4 -764000673#5 -764000673#6 -764000673#7 -764000673#8 -810813980#0 -810813980#1 -810813980#10 -810813980#2 -810813980#3 -810813980#4 -810813980#5 -810813980#6 -810813980#7 -810813980#8 -810813980#9 -826567453 -826567454 -86980320 -913624202#0 -913624202#1 104476234 104476238 111765915#0 111765915#1 111771059#0 111771059#1 113751454 115790308#0 118116148 118773309#1 129811153#0 129811153#1 133750660#1 133750660#2 133750660#3 133806978 133806979#0 133806979#1 134811809#0 134811809#1 143920958#0 143920958#1 143920958#2 143920958#3 143920959#0 15834351 15914788#0 15914788#1 15914788#2 165217769#0 165217769#1 165217769#2 165217770#0 165217771#0 165217772#1 165217806 165217827#0 165217827#1 165217827#2 165217827#3 165217839#1 165217839#2 165217870#1 165217870#2 165257881#1 165265050#0 165265050#1 165265050#2 165265050#3 165265050#4 165265050#5 165265050#6 165265057#0 165265057#1 165325229#0 165325229#1 165325229#2 165337364#1 165337364#2 191563437#2 19893613#0 19893613#1 19893613#2 19895498 19896202#1 19896203#0 19896203#1 19896203#2 19896203#3 19896203#4 19900941 19900942 20112438 20178495#0 20178495#1 20178495#2 20318109#0 20318109#1 20318109#2 20318109#3 20318110 20318114 20318122#1 20318122#2 20318125 20318126 20320553#0 20320553#1 21308354 215446976#1 215446976#2 219132791#1 222088594 222088688#0 222088906#0 222088906#1 23027211 231387458#0 231387458#1 231387458#2 231387459 231387460#1 245655774#0 245655774#1 263213889#0 263213889#1 263213889#2 263213891#0 263213891#1 263213891#2 274693142#0 274693142#1 274693142#2 274693142#3 274693142#4 274693142#5 274693147#2 274693147#3 274693147#4 274693149#0 274693149#1 274693149#2 300627773#0 313629696 329384202#1 329384202#2 329693416 329694554#0 329694554#1 329694554#10 329694554#2 329694554#3 329694554#4 329694554#5 329694554#6 329694554#7 329694554#9 329694558 329694559#0 329694559#1 329694559#2 329694559#3 329795964#0 329795964#1 329795985#0 329795985#1 329796314#0 329796314#1 329796314#2 329796314#3 329796316#0 329796316#1 329796316#2 329796316#3 329989224#0 329989224#1 329989224#2 329989911#0 329989911#1 329989912#0 329989912#1 329989912#2 330150435#0 330150435#1 330150435#2 330150435#3 330150435#4 330150435#5 330150435#6 330150435#7 330150435#8 330150435#9 330150736#0 330153470#1 330153472#1 330153472#2 330153472#3 330718542#0 330718542#1 330718600 330720150#0 330720150#1 331089342#0 331089342#1 331089342#2 331089342#3 331089342#4 331089342#5 331089342#6 331089342#7 331907686 332017012#0 332017012#1 332017012#10 332017012#11 332017012#12 332017012#13 332017012#14 332017012#2 332017012#3 332017012#4 332017012#5 332017012#6 332017012#7 332017012#8 332017012#9 337432401#0 337432401#1 337432401#2 337432401#3 337432401#4 34286991 34287027 34287039 352392846 352905244 354710813#0 354710813#1 354710813#2 360802894#1 361495433 361607070#0 361607070#1 361815168#0 361815168#1 374954611#0 374954611#1 374954612 374954613 374956181 374956183#0 374956183#1 374956183#2 374956183#3 374956183#4 374956185#0 374956185#1 374956189#0 374956189#1 374956192#0 374956192#1 374956192#2 374956192#3 376479646#0 376479646#1 376479646#10 376479646#11 376479646#12 376479646#13 376479646#14 376479646#15 376479646#2 376479646#3 376479646#4 376479646#5 376479646#6 376479646#7 376479646#8 376479646#9 377233440#0 377233440#1 377233440#2 37723610#1 385754231#0 385754231#1 38911509#0 38911509#1 38911509#2 38911509#3 38911509#4 39368250 393737478 39442471#0 39442471#1 39442471#2 39442471#3 39442471#4 39442471#5 39442471#6 39442471#7 39442471#8 394908447#0 394908447#1 394908447#2 394908447#3 394908447#4 394910074 396642608#1 399681575 399697650 402163247 41258631 41258973#1 41258973#2 41258974#0 41258974#1 41258975#0 41258975#1 41258975#2 41258975#3 41691765#0 41691765#1 41691766#0 41691766#1 422539631#0 422539631#1 422539631#2 422539714#0 422539714#1 423716973#0 423716973#1 428978766#0 428978766#1 428978766#2 428978767 4320462#0 4320462#1 4320463 4320473#0 4320473#1 4320473#2 4320473#3 4320473#4 4320473#5 4320473#6 4320473#7 4320786#0 4320786#1 4320804 440434601 453745797#1 453745799 453745802 453745825#0 453745825#1 453949527 453949528 453964887#0 453964892#0 453964892#1 453964892#2 453964892#3 453989311 453989312 453989313 453999956#0 454245380 454827462#1 454842388#0 454842388#1 454842388#2 454842389#0 454842389#1 454844393#0 454844393#1 454844394#0 454844394#1 454846311#0 454846311#1 454889964#0 454889964#1 454889965 454889966#0 454889966#1 455083968#1 455083976#0 455083998#0 455083998#1 455083999#0 455083999#1 455478683#0 456316925 456321034 456338617 456343514 456343516 456345788 456345791#0 456345791#1 456365232 456365233 456365234#0 456365234#1 457894390#0 457894390#1 457894390#2 457894390#3 457894390#4 457906829 457907544#0 457910426 457910427#1 457910429 457911381#0 457911381#1 457911384 457912524#0 457912524#1 457913045#0 457913045#1 457913045#2 457924060 458038153 458271793#1 458271794 458303421 458438675 458438683 458450993 458450994#0 458450994#1 458454760 458454763 458454765#0 458454765#1 458454765#2 458454765#3 461254934#1 461254934#2 461254934#3 461254935#1 461254935#2 462516043 463825906#1 463825907#0 463825907#1 464706886 464892586#0 464892586#1 464892587#0 464892587#1 465159976#0 465184976#0 465184976#1 465401962 465401964 465401966#0 465401966#1 465401969 465408857#0 465408857#1 465408857#2 465408857#3 465408858#1 465408860#1 465408862#0 465408862#1 465408862#2 465408862#3 465408862#4 465408864#0 465408864#1 465408864#2 465408864#3 465408864#4 465411709 465411710#0 465411711#0 465411711#1 465411712#0 465411712#1 465411713#0 465411714#0 465411714#1 465411715#1 465411715#2 465411715#3 465413237 465413238 465413240#0 465413240#1 465413243#1 465413249#0 465413249#1 465413249#2 465413249#3 465416567#3 465585475 465653665#0 465653665#1 465653673 466654181#0 466654181#1 466654181#2 466654181#3 466654181#4 466654181#5 467514126 4686990#0 4686990#1 4686990#2 4687632#1 474841415#0 474841415#1 474841418#0 474841418#1 475873781 475873782#0 475873782#1 476268107 480646021 480646024#0 480646024#1 480646026#0 480646026#1 480646026#2 480646026#3 480646026#4 480646026#5 480646026#6 480646028#0 480646028#1 480646028#2 480646028#3 480646028#4 4813607 48666275#0 48666275#1 48666286#0 48666286#1 48666292 48666293#0 48666293#1 48666295 48666299#1 48678910#0 48678910#1 4872827 48809176 48809260 48809261#0 48809261#1 4886314#1 4886314#2 4886314#3 48921991#0 48921991#1 490998039#0 490998039#1 490998039#10 490998039#11 490998039#12 490998039#2 490998039#3 490998039#4 490998039#5 490998039#6 490998039#7 490998039#8 490998039#9 4911698#0 4911698#1 4911698#10 4911698#2 4911698#3 4911698#4 4911698#5 4911698#6 4911698#7 4911698#8 4911698#9 491781292#0 491781292#1 491781292#2 491781292#3 51431607 51431608#0 51431608#1 51431608#2 51431608#3 51431608#4 533386017#0 533386017#1 537574328#0 537574328#1 537574328#2 537574328#3 537574328#4 537574328#5 537574330#0 537574330#1 537574330#2 537574330#3 537574330#4 548252183 561490748#0 561490748#1 561490750#0 561718399 561718402 561741709 588291335#0 588291335#1 60116375#0 60116375#1 60116375#2 60116376#0 60116376#1 60116376#2 60116376#3 60116376#4 60116376#5 60116377#0 60116377#1 60116377#2 60116377#3 60116377#4 60116379#0 60116379#1 60116379#2 60116380#1 60116381#0 60116381#1 60116381#2 60116382#0 60116382#1 60116382#2 60116383 607085378 686625290#0 686625290#1 686625290#10 686625290#11 686625290#2 686625290#3 686625290#4 686625290#5 686625290#6 686625290#7 686625290#8 686625290#9 686625291#0 686625291#1 688707556 707195316#1 723869799#1 723869799#10 723869799#11 723869799#12 723869799#13 723869799#14 723869799#15 723869799#16 723869799#17 723869799#2 723869799#3 723869799#4 723869799#5 723869799#6 723869799#7 723869799#8 723869799#9 728796869#0 728796869#1 728796869#2 731030660 756588989 764000673#0 764000673#1 764000673#2 764000673#3 764000673#4 764000673#5 764000673#6 764000673#7 764000673#8 810813980#0 810813980#1 810813980#10 810813980#2 810813980#3 810813980#4 810813980#5 810813980#6 810813980#7 810813980#8 810813980#9 826567453 826567454 86980320 88608913#10 88608913#11 88608913#8 88608913#9 913624202#0 913624202#1 918602131#0 918602131#1 92352683#0 92352683#1 95218178#2 96268485#0 96268486"/>