<?xml version="1.0" encoding="UTF-8"?>

<!-- generated on 04/30/21 10:30:05 by Eclipse SUMO netconvert Version 1.7.0
<configuration xmlns:xsi="http://www.w3.org/2001/XMLSchema-instance" xsi:noNamespaceSchemaLocation="http://sumo.dlr.de/xsd/netconvertConfiguration.xsd">

    <input>
        <osm-files value="Montreal.osm"/>
    </input>

    <output>
        <output-file value="MontrealJointure.net.xml"/>
        <ptstop-output value="ptstop.add.xml"/>
        <ptline-output value="ptlines.xml"/>
    </output>

    <projection>
        <proj.utm value="true"/>
    </projection>

    <edge_removal>
        <keep-edges.by-type value="highway.motorway,highway.primary,highway.secondary,highway.tertiary,highway.cycleway,highway.motorway_link,highway.primary_link,highway.secondary_link,highway.tertiary_link"/>
    </edge_removal>

    <junctions>
        <no-turnarounds value="true"/>
        <junctions.join value="true"/>
    </junctions>

    <formats>
        <osm.stop-output.length value="20"/>
    </formats>

    <report>
        <aggregate-warnings value="5"/>
    </report>

</configuration>
-->

<additional xmlns:xsi="http://www.w3.org/2001/XMLSchema-instance" xsi:noNamespaceSchemaLocation="http://sumo.dlr.de/xsd/additional_file.xsd">
    <busStop id="-1038433032" name="du Mont-Royal / du Parc" lane="-453713154_0" startPos="4.47" endPos="14.86" friendlyPos="true" lines="11-E"/>
    <busStop id="-1071631713" name="des Pins / University" lane="-453989311_0" startPos="17.82" endPos="32.82" friendlyPos="true" lines="144-E"/>
    <busStop id="-1071760807" name="Sherbrooke / Metcalfe" lane="-453729929_0" startPos="19.20" endPos="34.20" friendlyPos="true" lines="24-O"/>
    <busStop id="-1302759533" name="Rosemont / De Lorimier" lane="-354669447#0_0" startPos="68.80" endPos="83.80" friendlyPos="true" lines="25-N"/>
    <busStop id="-1302773425" name="Rosemont / des Écores" lane="-464696721#0_0" startPos="25.38" endPos="40.38" friendlyPos="true" lines="25-N"/>
    <busStop id="-1317859062" name="D&apos;Iberville / Rosemont" lane="-437150349#0_0" startPos="20.00" endPos="35.00" friendlyPos="true" lines="94-N"/>
    <busStop id="-1330275984" name="du Mont-Royal / Saint-Urbain" lane="-465195711#1_0" startPos="51.56" endPos="63.42" friendlyPos="true" lines="11-E 97-E"/>
    <busStop id="-1330276958" name="du Mont-Royal / du Parc" lane="-111771063#1_0" startPos="32.34" endPos="47.34" friendlyPos="true" lines="97-E"/>
    <busStop id="-1330277022" name="du Mont-Royal / Jeanne-Mance" lane="-453713155#0_0" startPos="37.76" endPos="52.76" friendlyPos="true" lines="11-E 97-E"/>
    <busStop id="-1423604490" name="Belvédère Camillien-Houde" lane="-410948561_0" startPos="95.31" endPos="110.31" friendlyPos="true" lines="11-E"/>
    <busStop id="-1456304180" name="Station Mont-Royal (du Mont-Royal / Berri)" lane="-4320351#1_0" startPos="30.14" endPos="45.14" friendlyPos="true" lines="97-E"/>
    <busStop id="-1456304182" name="Station Mont-Royal (du Mont-Royal / Berri)" lane="-4320351#1_0" startPos="15.29" endPos="30.29" friendlyPos="true" lines="11-E"/>
    <busStop id="-1456307136" name="Rachel / Molson" lane="-535385902#2_0" startPos="97.05" endPos="112.05" friendlyPos="true" lines="97-E"/>
    <busStop id="-1456307148" name="Rachel / André-Laurendeau" lane="-535385902#0_0" startPos="44.94" endPos="59.94" friendlyPos="true" lines="97-E"/>
    <busStop id="-1456307161" name="du Mont-Royal / Pontiac" lane="-452098813#0_0" startPos="22.40" endPos="37.40" friendlyPos="true" lines="11-O"/>
    <busStop id="-1457825329" name="Côte-des-Neiges / Summerhill" lane="-143920958#3_0" startPos="0.00" endPos="12.45" friendlyPos="true" lines="165-N"/>
    <busStop id="-1457907438" name="des Pins / du Parc (coin Nord-Est)" lane="-414309669#1_0" startPos="25.60" endPos="37.80" friendlyPos="true" lines="144-O"/>
    <busStop id="-1457909029" name="des Pins / Saint-Laurent" lane="-393659733_0" startPos="38.23" endPos="53.23" friendlyPos="true" lines="144-O"/>
    <busStop id="-1467420786" name="du Mont-Royal / de Mentana" lane="-463886941_0" startPos="25.19" endPos="40.19" friendlyPos="true" lines="11-O 97-O"/>
    <busStop id="-1467420796" name="du Mont-Royal / Saint-Hubert" lane="-452101821_0" startPos="48.19" endPos="63.19" friendlyPos="true" lines="11-O 97-O"/>
    <busStop id="-1574406168" name="Sherbrooke / Robert-Bourassa" lane="-465413249#1_0" startPos="16.83" endPos="28.87" friendlyPos="true" lines="24-O"/>
    <busStop id="-1574991722" name="du Mont-Royal / De Bullion" lane="-337509255#1_0" startPos="31.44" endPos="46.44" friendlyPos="true" lines="11-E 97-E"/>
    <busStop id="-1574991723" name="du Mont-Royal / Saint-Laurent" lane="-4687363#0_0" startPos="15.75" endPos="30.75" friendlyPos="true" lines="11-E 97-E"/>
    <busStop id="-1574991725" name="du Mont-Royal / Saint-Denis" lane="-452049817#1_0" startPos="23.26" endPos="34.50" friendlyPos="true" lines="11-E 97-E"/>
    <busStop id="-1707412039" name="Sainte-Catherine / Alphonse-D.-Roy" lane="-83895956#2_0" startPos="97.42" endPos="112.42" friendlyPos="true" lines="34-O"/>
    <busStop id="-1707416790" name="du Havre / Sainte-Catherine" lane="-20447044_0" startPos="2.70" endPos="17.70" friendlyPos="true" lines="94-N"/>
    <busStop id="-1707420431" name="Sainte-Catherine / Frontenac" lane="-20447044_0" startPos="38.13" endPos="45.63" friendlyPos="true" lines="34-O"/>
    <busStop id="-1707439188" name="D&apos;Iberville / Bélanger" lane="-464121426_0" startPos="305.19" endPos="320.19" friendlyPos="true" lines="94-N"/>
    <busStop id="-1725959677" name="Sherbrooke / Moreau" lane="-535385929#1_0" startPos="33.07" endPos="41.02" friendlyPos="true" lines="185-E"/>
    <busStop id="-1743299055" name="Saint-Denis / Saint-Joseph" lane="-337509253#1_0" startPos="7.58" endPos="22.58" friendlyPos="true" lines="427-O"/>
    <busStop id="-1743324709" name="du Parc / Fairmount" lane="-453713169_0" startPos="66.39" endPos="81.39" friendlyPos="true" lines="80-N"/>
    <busStop id="-1743327583" name="du Parc / Saint-Viateur" lane="-453713181#0_0" startPos="200.39" endPos="215.39" friendlyPos="true" lines="80-N"/>
    <busStop id="-1743330321" name="du Parc / Bernard" lane="-465152985#0_0" startPos="141.84" endPos="156.84" friendlyPos="true" lines="80-N"/>
    <busStop id="-1743397202" name="Laurier / Saint-Urbain" lane="-127653572#0_0" startPos="44.11" endPos="59.11" friendlyPos="true" lines="51-E"/>
    <busStop id="-1751226189" name="Saint-Hubert / Legendre" lane="-311420924#3_0" startPos="111.24" endPos="126.24" friendlyPos="true" lines="30-S"/>
    <busStop id="-1751227801" name="Saint-Hubert / Émile-Journault" lane="-311420924#0_0" startPos="11.40" endPos="26.40" friendlyPos="true" lines="30-S"/>
    <busStop id="-1751239650" name="Saint-Hubert / de Louvain" lane="-311420905#0_0" startPos="113.17" endPos="128.17" friendlyPos="true" lines="30-S"/>
    <busStop id="-1751264091" name="Saint-Hubert / Chabanel" lane="-311420924#5_0" startPos="21.12" endPos="36.06" friendlyPos="true" lines="30-S"/>
    <busStop id="-1751294337" name="Saint-Hubert / Sauvé" lane="-311420904_0" startPos="244.14" endPos="259.14" friendlyPos="true" lines="30-S"/>
    <busStop id="-1751295486" name="Saint-Hubert / Sauriol" lane="-311420902#0_0" startPos="199.55" endPos="214.55" friendlyPos="true" lines="30-S"/>
    <busStop id="-1751296690" name="Saint-Hubert / Fleury" lane="-452383556#2_0" startPos="230.71" endPos="238.87" friendlyPos="true" lines="30-S"/>
    <busStop id="-1751306498" name="Saint-Hubert / Prieur" lane="-452383555#1_0" startPos="0.00" endPos="2.92" friendlyPos="true" lines="30-S"/>
    <busStop id="-1751309740" name="Saint-Hubert / Henri-Bourassa" lane="-452383555#4_0" startPos="4.20" endPos="19.20" friendlyPos="true" lines="30-S"/>
    <busStop id="-2091616661" name="du Centre / de la Sucrerie" lane="-265250999#4_0" startPos="88.61" endPos="103.61" friendlyPos="true" lines="107-S"/>
    <busStop id="-2109933252" name="D&apos;Argenson / Grand Trunk" lane="-265251008#0_0" startPos="40.84" endPos="53.97" friendlyPos="true" lines="107-N"/>
    <busStop id="-2109933325" name="du Centre / Island" lane="-463433633_0" startPos="67.63" endPos="82.63" friendlyPos="true" lines="107-S"/>
    <busStop id="-2429710466" name="Sainte-Catherine / Moreau" lane="-83895956#3_0" startPos="15.17" endPos="30.17" friendlyPos="true" lines="34-O"/>
    <busStop id="-2518134040" name="Sherbrooke / Fullum" lane="-329065115#2_0" startPos="55.80" endPos="70.80" friendlyPos="true" lines="24-O"/>
    <busStop id="-2687686424" name="du Centre / Shearer" lane="-265250999#2_0" startPos="97.76" endPos="112.76" friendlyPos="true" lines="107-S"/>
    <busStop id="-2687686486" name="Wellington / Bridge" lane="-37722304_0" startPos="60.05" endPos="75.05" friendlyPos="true" lines="107-S"/>
    <busStop id="-2695701233" name="Peel / du Docteur-Penfield" lane="-263213891#0_0" startPos="46.21" endPos="61.21" friendlyPos="true" lines="107-S"/>
    <busStop id="-2701338580" name="du Centre / De Condé" lane="-265250999#7_0" startPos="53.73" endPos="68.73" friendlyPos="true" lines="107-S"/>
    <busStop id="-2709172922" name="Station Verdun ( de Verdun / Willibrord)" lane="-476069398#6_0" startPos="51.33" endPos="66.33" friendlyPos="true" lines="107-N"/>
    <busStop id="-2709172960" name="de Verdun / Strathmore" lane="-475241415#3_0" startPos="153.71" endPos="168.71" friendlyPos="true" lines="107-N"/>
    <busStop id="-2709172980" name="de Verdun / de l&apos;Église" lane="-475241415#7_0" startPos="81.53" endPos="95.59" friendlyPos="true" lines="107-N"/>
    <busStop id="-2709173000" lane="-476069398#10_0" startPos="45.59" endPos="60.59" friendlyPos="true" lines="107-N"/>
    <busStop id="-2709173021" lane="-475241414_0" startPos="27.41" endPos="42.41" friendlyPos="true" lines="107-N"/>
    <busStop id="-2709173033" lane="-475241415#6_0" startPos="220.27" endPos="235.27" friendlyPos="true" lines="107-N"/>
    <busStop id="-2709173038" lane="-475241415#4_0" startPos="116.33" endPos="131.33" friendlyPos="true" lines="107-N"/>
    <busStop id="-2709173049" lane="-475241415#2_0" startPos="162.30" endPos="177.30" friendlyPos="true" lines="107-N"/>
    <busStop id="-2709173053" name="de Verdun / Henri-Duhamel" lane="-475241415#0_0" startPos="6.93" endPos="21.93" friendlyPos="true" lines="107-N"/>
    <busStop id="-2709173055" lane="-25336364#1_0" startPos="13.08" endPos="28.08" friendlyPos="true" lines="107-S"/>
    <busStop id="-2709173058" lane="-25336364#4_0" startPos="16.32" endPos="30.41" friendlyPos="true" lines="107-S"/>
    <busStop id="-2709173064" name="du Centre / Ropery" lane="-463433635#1_0" startPos="110.75" endPos="125.75" friendlyPos="true" lines="107-S"/>
    <busStop id="-2710853122" name="de Verdun / Desmarchais" lane="-265251010#0_0" startPos="79.43" endPos="94.43" friendlyPos="true" lines="107-N"/>
    <busStop id="-2710853126" name="de Verdun / Woodland" lane="-265251010#3_0" startPos="36.66" endPos="51.66" friendlyPos="true" lines="107-N"/>
    <busStop id="-2710853134" lane="-265251010#11_0" startPos="58.36" endPos="73.36" friendlyPos="true" lines="107-N"/>
    <busStop id="-2710853136" lane="-265251010#8_0" startPos="68.05" endPos="83.05" friendlyPos="true" lines="107-N"/>
    <busStop id="-2710853140" lane="-265251010#6_0" startPos="53.51" endPos="68.51" friendlyPos="true" lines="107-N"/>
    <busStop id="-2710853147" lane="-476069398#13_0" startPos="49.97" endPos="63.79" friendlyPos="true" lines="107-N"/>
    <busStop id="-281754806" name="Beaubien / Fabre" lane="-464696707#0_0" startPos="20.63" endPos="35.63" friendlyPos="true" lines="18-O"/>
    <busStop id="-281754811" name="Beaubien / De Lanaudière" lane="-464696706_0" startPos="68.66" endPos="83.66" friendlyPos="true" lines="18-O"/>
    <busStop id="-281754815" name="Beaubien / De Normanville" lane="-464720641_0" startPos="77.71" endPos="92.71" friendlyPos="true" lines="18-O"/>
    <busStop id="-281754818" name="Beaubien / Christophe-Colomb" lane="-451896528_0" startPos="31.14" endPos="46.14" friendlyPos="true" lines="18-O"/>
    <busStop id="-281754824" name="Christophe-Colomb / Beaubien" lane="-451896406_0" startPos="180.59" endPos="195.59" friendlyPos="true" lines="13-N"/>
    <busStop id="-281865774" name="Beaubien / D&apos;Iberville" lane="-464121409#0_0" startPos="25.52" endPos="40.52" friendlyPos="true" lines="18-O"/>
    <busStop id="-281865776" name="D&apos;Iberville / Beaubien" lane="-464121411_0" startPos="303.30" endPos="316.26" friendlyPos="true" lines="94-N"/>
    <busStop id="-281870444" name="Beaubien / 9e Avenue" lane="-460738651_0" startPos="54.46" endPos="69.46" friendlyPos="true" lines="18-O"/>
    <busStop id="-281870463" name="Beaubien / Saint-Michel" lane="-453533087_0" startPos="70.71" endPos="85.71" friendlyPos="true" lines="18-O"/>
    <busStop id="-281870470" name="Collège de Rosemont (Beaubien / 16e Avenue)" lane="-460737244_0" startPos="152.82" endPos="167.82" friendlyPos="true" lines="18-O"/>
    <busStop id="-281870473" name="Beaubien / 19e Avenue" lane="-437093187#3_0" startPos="28.73" endPos="43.73" friendlyPos="true" lines="18-O"/>
    <busStop id="-281870476" name="Beaubien / 20e Avenue" lane="-437093187#5_0" startPos="75.11" endPos="90.11" friendlyPos="true" lines="18-O"/>
    <busStop id="-281870483" name="Beaubien / Pie-IX" lane="-851332089#0_0" startPos="53.34" endPos="68.34" friendlyPos="true" lines="18-O"/>
    <busStop id="-286084238" name="Jean-Talon / 13e Avenue" lane="-460751543_0" startPos="46.31" endPos="61.31" friendlyPos="true" lines="141-E"/>
    <busStop id="-286084239" name="Jean-Talon / 15e Avenue" lane="-460751546_0" startPos="50.41" endPos="65.41" friendlyPos="true" lines="141-E"/>
    <busStop id="-286084241" name="Jean-Talon / 17e Avenue" lane="-460751342_0" startPos="48.94" endPos="63.94" friendlyPos="true" lines="141-E"/>
    <busStop id="-286084243" name="Jean-Talon / 20e Avenue" lane="-37859259#3_0" startPos="49.90" endPos="64.90" friendlyPos="true" lines="141-E"/>
    <busStop id="-286084244" name="Jean-Talon / Pie-IX" lane="-37859259#0_0" startPos="39.83" endPos="54.83" friendlyPos="true" lines="141-E"/>
    <busStop id="-286298273" name="D&apos;Iberville / de Bellechasse" lane="-438830142_0" startPos="160.92" endPos="175.92" friendlyPos="true" lines="94-N"/>
    <busStop id="-286300120" name="Beaubien / Saint-Hubert" lane="-464735543#0_0" startPos="20.17" endPos="35.17" friendlyPos="true" lines="18-O"/>
    <busStop id="-286300156" name="Station Beaubien" lane="-361482372#0_0" startPos="2.11" endPos="17.11" friendlyPos="true" lines="18-O"/>
    <busStop id="-286300171" name="Beaubien / Saint-Denis" lane="-454867298_0" startPos="33.84" endPos="48.84" friendlyPos="true" lines="18-O"/>
    <busStop id="-286302650" name="Saint-Denis / du Carmel" lane="-361481497#1_0" startPos="11.95" endPos="23.00" friendlyPos="true" lines="30-S"/>
    <busStop id="-286302653" name="Saint-Denis / Boucher" lane="-361481225_0" startPos="123.09" endPos="138.09" friendlyPos="true" lines="30-S 47-O"/>
    <busStop id="-286302661" name="Saint-Denis / Laurier" lane="-361481058#1_0" startPos="192.75" endPos="205.43" friendlyPos="true" lines="30-S 47-O"/>
    <busStop id="-286302664" name="Saint-Denis / Saint-Joseph" lane="-330153474#2_0" startPos="19.09" endPos="29.40" friendlyPos="true" lines="30-S"/>
    <busStop id="-286302667" name="Saint-Denis / Gilford" lane="-463886945#1_0" startPos="24.67" endPos="39.67" friendlyPos="true" lines="30-S"/>
    <busStop id="-286307022" name="Station Mont-Royal (Saint-Denis / du Mont-Royal)" lane="-337509254#1_0" startPos="144.51" endPos="154.45" friendlyPos="true" lines="30-S 427-O"/>
    <busStop id="-286307025" name="Saint-Denis / Marie-Anne" lane="-452269046#1_0" startPos="89.40" endPos="97.04" friendlyPos="true" lines="30-S"/>
    <busStop id="-286307029" name="Saint-Denis / Rachel" lane="-308901623#1_0" startPos="97.41" endPos="108.71" friendlyPos="true" lines="30-S 427-O"/>
    <busStop id="-286307030" name="Saint-Denis / Duluth" lane="-329915132#1_0" startPos="15.74" endPos="30.74" friendlyPos="true" lines="30-S"/>
    <busStop id="-286307040" name="Saint-Denis / des Pins" lane="-329692108_0" startPos="44.06" endPos="59.06" friendlyPos="true" lines="30-S 427-O"/>
    <busStop id="-286307044" name="des Pins / Saint-Denis" lane="-329693415#3_0" startPos="0.00" endPos="14.95" friendlyPos="true" lines="144-E"/>
    <busStop id="-286307052" name="Cherrier / Berri" lane="-465196292_0" startPos="15.79" endPos="23.29" friendlyPos="true" lines="144-E"/>
    <busStop id="-291483318" name="Rachel / De La Roche" lane="-393785994#1_0" startPos="71.56" endPos="86.56" friendlyPos="true" lines="29-E"/>
    <busStop id="-291483456" name="du Mont-Royal / Frontenac" lane="-393886290_0" startPos="23.12" endPos="38.12" friendlyPos="true" lines="97-O"/>
    <busStop id="-291483459" name="D&apos;Iberville / Frontenac" lane="-313862884#0_0" startPos="86.66" endPos="101.66" friendlyPos="true" lines="94-N"/>
    <busStop id="-291483461" name="D&apos;Iberville / Saint-Joseph" lane="-437151135_0" startPos="92.22" endPos="107.22" friendlyPos="true" lines="94-N"/>
    <busStop id="-291483464" name="D&apos;Iberville / Masson" lane="-393721771#1_0" startPos="232.58" endPos="247.58" friendlyPos="true" lines="94-N"/>
    <busStop id="-291483467" name="D&apos;Iberville / No 5455" lane="-393721770#1_0" startPos="51.68" endPos="66.68" friendlyPos="true" lines="94-N"/>
    <busStop id="-291483472" name="D&apos;Iberville / Dandurand" lane="-393721770#1_0" startPos="228.21" endPos="238.27" friendlyPos="true" lines="25-N 94-N"/>
    <busStop id="-291483481" name="D&apos;Iberville / Holt" lane="-437150504_0" startPos="53.60" endPos="68.60" friendlyPos="true" lines="25-N 94-N"/>
    <busStop id="-291483520" name="Saint-Michel / de Bellechasse" lane="-455264694#0_0" startPos="20.18" endPos="35.18" friendlyPos="true" lines="67-N"/>
    <busStop id="-291487989" name="De Lorimier / Villeray" lane="-341094446#0_0" startPos="16.16" endPos="31.16" friendlyPos="true" lines="10-N"/>
    <busStop id="-291488012" name="Christophe-Colomb / Villeray" lane="-160091649#1_0" startPos="358.76" endPos="367.11" friendlyPos="true" lines="13-N"/>
    <busStop id="-300488648" name="Saint-Laurent / Legendre" lane="-20296255#0_0" startPos="233.42" endPos="248.42" friendlyPos="true" lines="55-S"/>
    <busStop id="-301034864" name="Saint-Laurent / de Louvain" lane="-330719427#1_0" startPos="177.32" endPos="192.32" friendlyPos="true" lines="55-S"/>
    <busStop id="-301034865" name="Saint-Laurent / Chabanel" lane="-330719423#1_0" startPos="178.87" endPos="193.87" friendlyPos="true" lines="55-S"/>
    <busStop id="-303687973" name="Jean-Talon / No 6875" lane="-454843551#1_0" startPos="0.00" endPos="5.34" friendlyPos="true" lines="141-E"/>
    <busStop id="-303687976" name="Jean-Talon / No 6695" lane="-309686817_0" startPos="32.81" endPos="47.81" friendlyPos="true" lines="141-E"/>
    <busStop id="-303687984" name="Jean-Talon / De Bellefeuille" lane="-131828385#0_0" startPos="244.98" endPos="255.38" friendlyPos="true" lines="141-E"/>
    <busStop id="-303687989" name="Jean-Talon / Valdombre" lane="-131828385#3_0" startPos="109.12" endPos="124.12" friendlyPos="true" lines="141-E"/>
    <busStop id="-303688002" name="Jean-Talon / Mainville" lane="-131828385#5_0" startPos="157.69" endPos="171.45" friendlyPos="true" lines="141-E"/>
    <busStop id="-303688010" name="Jean-Talon / de l&apos;Assomption" lane="-37859261#2_0" startPos="54.25" endPos="69.25" friendlyPos="true" lines="141-E"/>
    <busStop id="-303688013" name="Jean-Talon / de Lisieux" lane="-460939673_0" startPos="44.62" endPos="59.62" friendlyPos="true" lines="141-E"/>
    <busStop id="-303688015" name="Jean-Talon / Dollier" lane="-460919412_0" startPos="40.12" endPos="55.12" friendlyPos="true" lines="141-E"/>
    <busStop id="-303688035" name="Jean-Talon / Daudet" lane="-37859260#5_0" startPos="125.88" endPos="140.88" friendlyPos="true" lines="141-E"/>
    <busStop id="-303688037" name="Jean-Talon / 24e Avenue" lane="-455264720#0_0" startPos="31.05" endPos="45.75" friendlyPos="true" lines="141-E"/>
    <busStop id="-3046699423" name="Station Snowdon (Queen-Mary / Circle)" lane="-464065123_0" startPos="20.44" endPos="35.44" friendlyPos="true" lines="51-E"/>
    <busStop id="-3154993657" name="Laurier / du Parc" lane="-467466336#0_0" startPos="19.29" endPos="34.29" friendlyPos="true" lines="51-E"/>
    <busStop id="-3167888764" name="Queen-Mary / Lemieux" lane="-463870724#2_0" startPos="210.79" endPos="223.50" friendlyPos="true" lines="51-E"/>
    <busStop id="-3169830806" name="Queen-Mary / Victoria" lane="-463870724#0_0" startPos="161.63" endPos="176.63" friendlyPos="true" lines="51-E"/>
    <busStop id="-31776717" lane="-41258632#0_0" startPos="61.75" endPos="61.75" friendlyPos="true" lines="24-O"/>
    <busStop id="-3184087237" name="Queen-Mary / Roslyn" lane="-20188675#9_0" startPos="58.41" endPos="73.41" friendlyPos="true" lines="51-E"/>
    <busStop id="-3184087238" name="Institut de gériatrie (Queen-Mary/Cedar Crescent)" lane="-20188675#3_0" startPos="34.27" endPos="49.27" friendlyPos="true" lines="51-E"/>
    <busStop id="-3220895455" name="Sainte-Catherine / Dézéry" lane="-461136108#1_0" startPos="64.82" endPos="73.37" friendlyPos="true" lines="34-O"/>
    <busStop id="-3861106468" name="Côte-Sainte-Catherine / Saint-Joseph" lane="-453713168#1_0" startPos="57.03" endPos="68.12" friendlyPos="true" lines="129-N"/>
    <busStop id="-3861106469" name="Côte-Sainte-Catherine / Rockland" lane="-416426551#0_0" startPos="25.63" endPos="40.63" friendlyPos="true" lines="51-O 129-N"/>
    <busStop id="-3861106470" name="Côte-Sainte-Catherine / Claude-Champagne" lane="-464941128_0" startPos="32.84" endPos="47.84" friendlyPos="true" lines="51-O 129-N"/>
    <busStop id="-427618245" name="École de technologie supérieure (Peel/Notre-Dame)" lane="-37722302#1_0" startPos="11.22" endPos="24.46" friendlyPos="true" lines="107-S"/>
    <busStop id="-4325314487" name="Remembrance / Cavalerie du SPVM" lane="-636899611#4_0" startPos="111.69" endPos="126.69" friendlyPos="true" lines="11-E"/>
    <busStop id="-4325314488" name="Camillien-Houde / Remembrance" lane="-4886357_0" startPos="5.22" endPos="20.22" friendlyPos="true" lines="11-E"/>
    <busStop id="-4325318890" name="Lac aux Castors (Remembrance / No 2000)" lane="-636899611#8_0" startPos="119.71" endPos="134.71" friendlyPos="true" lines="11-E"/>
    <busStop id="-4360303799" name="du Parc / Saint-Joseph" lane="-453713179#1_0" startPos="21.48" endPos="36.48" friendlyPos="true" lines="80-N"/>
    <busStop id="-4360323192" name="Rachel / Saint-Hubert" lane="-453940107#3_0" startPos="34.34" endPos="47.75" friendlyPos="true" lines="29-E"/>
    <busStop id="-4360362690" name="Rachel / Fabre" lane="-393865865#1_0" startPos="0.00" endPos="9.49" friendlyPos="true" lines="29-E"/>
    <busStop id="-4467277297" name="Sherbrooke / D&apos;Iberville" lane="-329065115#4_0" startPos="17.07" endPos="32.07" friendlyPos="true" lines="24-O"/>
    <busStop id="-4467277299" name="Sherbrooke / Hogan" lane="-329066841_0" startPos="42.43" endPos="57.43" friendlyPos="true" lines="24-O"/>
    <busStop id="-4467465419" name="Côte-des-Neiges / Van Horne" lane="-449819614#1_0" startPos="1.28" endPos="14.72" friendlyPos="true" lines="165-S"/>
    <busStop id="-4478193293" name="Côte-des-Neiges / Jean-Brillant" lane="-462445300#1_0" startPos="41.16" endPos="51.58" friendlyPos="true" lines="165-N"/>
    <busStop id="-4478289737" name="Oratoire Saint-Joseph (Queen-Mary/du Frère-André)" lane="-463876362_0" startPos="44.41" endPos="59.41" friendlyPos="true" lines="51-E"/>
    <busStop id="-460923275" name="Station Berri-UQAM (Berri / De Maisonneuve)" lane="-329989914#1_0" startPos="102.82" endPos="115.20" friendlyPos="true" lines="30-N 427-E"/>
    <busStop id="-4717493649" name="Masson / 9e Avenue" lane="-374137277#1_0" startPos="47.69" endPos="62.69" friendlyPos="true" lines="47-O"/>
    <busStop id="-4723311658" name="Ontario / Saint-Denis" lane="-465380604#0_0" startPos="32.05" endPos="47.05" friendlyPos="true" lines="125-O"/>
    <busStop id="-5008527821" name="Saint-Michel / Laurier" lane="-129640828#10_0" startPos="22.64" endPos="37.64" friendlyPos="true" lines="67-N"/>
    <busStop id="-504314241" name="Sherbrooke / De Bleury" lane="-41258631_0" startPos="75.64" endPos="90.64" friendlyPos="true" lines="80-N 129-N"/>
    <busStop id="-504314257" name="du Parc / Prince-Arthur" lane="-465420823#0_0" startPos="151.08" endPos="166.08" friendlyPos="true" lines="80-N 129-N"/>
    <busStop id="-504314265" name="du Parc / Milton" lane="-4886366#1_0" startPos="42.27" endPos="57.27" friendlyPos="true" lines="80-N 129-N"/>
    <busStop id="-504314267" name="du Parc / Laurier" lane="-453713174_0" startPos="38.24" endPos="53.24" friendlyPos="true" lines="80-N"/>
    <busStop id="-504314277" name="du Parc / Léo-Pariseau" lane="-562481866_0" startPos="30.68" endPos="38.18" friendlyPos="true" lines="80-N 129-N"/>
    <busStop id="-504318025" name="Station Guy-Concordia (Guy / De Maisonneuve)" lane="-165217827#4_0" startPos="0.00" endPos="7.50" friendlyPos="true" lines="165-N"/>
    <busStop id="-504318025@8873299" name="Station Guy-Concordia (Guy / De Maisonneuve)" lane="-455083993#1_0" startPos="65.04" endPos="79.43" friendlyPos="true" lines="165-S"/>
    <busStop id="-5043792022" name="Sherbrooke / De Lorimier" lane="-463440566_0" startPos="59.10" endPos="74.10" friendlyPos="true" lines="24-O"/>
    <busStop id="-5045508921" name="Sherbrooke / Plessis" lane="-455449062#0_0" startPos="60.12" endPos="75.12" friendlyPos="true" lines="24-O"/>
    <busStop id="-5046380421" name="Saint-Michel / Saint-Joseph" lane="-454272012_0" startPos="0.00" endPos="10.86" friendlyPos="true" lines="67-S"/>
    <busStop id="-5060907322" name="Édouard-Montpetit / Woodbury" lane="-464720533#0_0" startPos="85.46" endPos="100.46" friendlyPos="true" lines="51-E"/>
    <busStop id="-5060927622" name="Station Université-de-Montréal" lane="-167252474#0_0" startPos="0.33" endPos="15.33" friendlyPos="true" lines="51-E"/>
    <busStop id="-5106483237" name="Station Vendôme" lane="-608430715#1_0" startPos="11.76" endPos="26.76" friendlyPos="true" lines="105-E"/>
    <busStop id="-5138780523" name="Masson / Cartier" lane="-330301182_0" startPos="120.96" endPos="128.49" friendlyPos="true" lines="47-E"/>
    <busStop id="-5182175722" name="Ontario / de la Visitation" lane="-458454765#0_0" startPos="73.29" endPos="88.29" friendlyPos="true" lines="125-O"/>
    <busStop id="-5182204121" name="Marché St-Jacques (Ontario / Atateken)" lane="-458450993_0" startPos="14.97" endPos="29.97" friendlyPos="true" lines="125-O"/>
    <busStop id="-5199274621" name="Station Joliette (Hochelaga / Joliette)" lane="-393666590#1_0" startPos="2.07" endPos="11.71" friendlyPos="true" lines="67-N 67-S"/>
    <busStop id="-5202087521" name="Saint-Michel / Masson" lane="-129640828#5_0" startPos="26.92" endPos="41.92" friendlyPos="true" lines="67-N"/>
    <busStop id="-5211132722" name="Rachel / Saint-Denis" lane="-465184061#0_0" startPos="21.86" endPos="36.86" friendlyPos="true" lines="29-E"/>
    <busStop id="-5212847824" name="Masson / 6e Avenue" lane="-463678716#2_0" startPos="47.17" endPos="56.45" friendlyPos="true" lines="47-O"/>
    <busStop id="-5212859429" name="Masson / 3e Avenue" lane="-463678714_0" startPos="52.95" endPos="67.95" friendlyPos="true" lines="47-O"/>
    <busStop id="-5212859433" name="Saint-Grégoire / Rivard" lane="-361481225_0" startPos="0.00" endPos="7.50" friendlyPos="true" lines="47-O"/>
    <busStop id="-5212859625" name="Saint-Grégoire / De La Roche" lane="-189587739#0_0" startPos="106.18" endPos="119.38" friendlyPos="true" lines="47-O"/>
    <busStop id="-5212859729" name="Saint-Grégoire / Marquette" lane="-189587738#3_0" startPos="29.08" endPos="37.82" friendlyPos="true" lines="47-O"/>
    <busStop id="-5212929021" name="Rachel / de Mentana" lane="-475009070_0" startPos="22.34" endPos="37.34" friendlyPos="true" lines="29-E"/>
    <busStop id="-5330038321" name="Sainte-Catherine / Nicolet" lane="-461136112#0_0" startPos="65.91" endPos="80.91" friendlyPos="true" lines="34-O"/>
    <busStop id="-5337275121" name="Place Simon-Valois (Ontario / Valois)" lane="-461163009_0" startPos="78.96" endPos="93.96" friendlyPos="true" lines="125-O"/>
    <busStop id="-5337275222" name="Ontario / Berri" lane="-329795964#0_0" startPos="18.31" endPos="33.31" friendlyPos="true" lines="125-O"/>
    <busStop id="-5694000874" name="Sherbrooke / Hutchison" lane="-465585475_0" startPos="35.43" endPos="50.43" friendlyPos="true" lines="24-O"/>
    <busStop id="-5707042975" name="Sainte-Catherine / Davidson" lane="-393650707_0" startPos="56.15" endPos="71.15" friendlyPos="true" lines="34-O"/>
    <busStop id="-5707042977" name="Sainte-Catherine / Joliette" lane="-393674368#0_0" startPos="75.95" endPos="90.95" friendlyPos="true" lines="34-O"/>
    <busStop id="-5747595538" name="du Parc / Villeneuve" lane="-453713176_0" startPos="11.93" endPos="26.93" friendlyPos="true" lines="80-N"/>
    <busStop id="-5754183970" name="Berri / René-Lévesque" lane="-133750660#1_0" startPos="75.89" endPos="90.89" friendlyPos="true" lines="30-N 14-N"/>
    <busStop id="-5754358295" name="Peel / Wellington" lane="-455712869#1_0" startPos="139.79" endPos="154.79" friendlyPos="true" lines="107-S"/>
    <busStop id="-5754358296" name="Peel / Ottawa" lane="-455712867#1_0" startPos="150.98" endPos="161.92" friendlyPos="true" lines="107-S"/>