<?xml version="1.0" encoding="UTF-8"?>
<!-- generated on 2021-06-16 17:01:06.758957 by $Id$ v1_9_1+0311-5b334a151b
  options: -n C:\Users\hugue\MontrealTrafficSimulation - Copie\SUMO\input\carte\CarteMontreal_Sans_Un_Res.net.xml -t C:\Users\hugue\MontrealTrafficSimulation - Copie\SUMO\input\TAZ\poly_sans_residence.xml
-->
<tazs xmlns:xsi="http://www.w3.org/2001/XMLSchema-instance" xsi:noNamespaceSchemaLocation="http://sumo.dlr.de/xsd/taz_file.xsd">
    <taz id="101" color="51,128,255" edges="-118773309 -354710423 -377233443 -39442471 -396642608#1 -422539631 -455083994#1 -456874546#0 -456874546#1 -461254934#1 -464718641 -533386017 -561741709 -60116379 103896396#2 103896396#3 103896396#4 103935601 103935602 103974912 103974914#0 103974914#1 103974914#3 103974914#4 103974914#5 104476234 104476236 104476237 104476238 107613002 111771067#0 111771067#1 111771070 111771071#0 111771071#1 113861079 114875712 114875727 114876252 115790308#0 115790308#2 118116148 118773309 126011883 126012206 126012207#0 126012207#1 127790962 129587031 129587033 132093451 133750660#1 133750660#2 133806980#0 133806980#1 133806981 133806982 134811808#1 134811808#2 134811808#3 134811810#3 134811810#4 13503101#0 13503101#1 15834351 15834714 15915825#0 164974773 165217827#0 165217827#1 165257881#1 165265049#0 165265049#1 165265049#2 165325225#0 165325226#0 165325226#1 165325229 165325231 165325606 165334551 165334552 165334553 165337364#1 165337364#4 165337364#7 176180511 191563437#2 19652259 19652361 19893613#1 19894605#0 19894605#1 19894605#2 19894612 19895495 19895498 19895957 19895958 19896202 19896203#0 19896203#1 19899867 19910387 19914255 19914256 20318110 215446976#1 215446976#2 215446977#1 219132791#0 219132792 219132793#0 219132793#1 219132794#0 219132794#1 219132794#2 24221231#1 25367384 274693142#3 274693147 274693149 274693150#0 274693150#1 300414148#0 300414148#1 300627772#1 300627773 308658929#0 312955853 312955854#0 312955854#1 312955854#2 312955854#3 312955854#4 312955854#5 313639754 313639760 329384201#0 329384201#1 329384202 329384203 329384205 329384209 329384210 329384211 329384213#0 329384213#1 329384213#2 329384213#3 329384213#4 329384215 329384216 329384217#1 329384217#2 329384217#3 329384217#4 329384217#5 329384217#6 329384217#7 329694554#11 329694554#12 329694554#13 329694554#14 329694554#15 329694554#16 329694554#17 329694554#20 329795964 329795985#0 329795985#1 329796314#0 329988459#0 329988459#1 329988459#2 329988459#3 329988460#0 329988460#1 329989912 329989914 329989915#0 329989915#1 329989915#2 332695584#1 332695584#2 332695584#3 332695584#4 332695584#5 34144392#1 34286991 34287015 34287027 34287039 34287041 35165792 35165799 352392845 352905244 352905264 352905266 352905364#0 352905364#1 352905364#2 352905364#3 354710422 354710423 35565810 356391517#0 356391598 356979511 35928368#0 35928368#1 361607071 361607072 36606092 36606094 36606095 366701672 36672936 36672937#0 36672937#1 36672938#1 36672938#2 36672938#3 36675277 36675279#0 36675279#1 36675279#2 36675287 374954611#0 374954611#1 374956189#0 374956189#1 374956192#0 374956192#1 374956192#2 376479646#0 376479646#1 376479646#2 37722302#1 377233441#0 377233442 377233443 385754231 385879098#0 385879098#1 38700726#1 39368249#1 39368249#2 39368250 39442470 39442471 396642608#1 396642609#0 399681575 402163247 41258626 41258628#0 41258633#0 41258633#1 41258633#2 41258633#3 41258971#0 41258971#1 41258976#2 41551807#0 41551807#1 415626770#0 415626770#1 415626772#0 415626772#1 422539626 422539631 422539714 4320454#0 4320454#1 4320454#2 4320462#0 4320462#1 4320463 439879818#0 439879818#1 450724839#0 450724839#1 450956616 453299277 453959371#0 453959371#1 453963142 453981160#0 453981160#1 453981161#0 453981161#1 453981162#0 453989310 453989316 453989322#0 453989323#0 453989323#1 453989324 453989325#1 453989326 453989327 454215274 454215275 454215276#1 454215277#0 454238784 454238785#1 454238786#1 454238787#0 454245382#1 454842388 454842389 454844393 454844394 455083967 455083969 455083970#0 455083970#1 455083970#2 455083971 455083972#0 455083972#1 455083973 455083974#0 455083974#1 455083975#0 455083975#1 455083975#2 455083977#0 455083978#0 455083979#1 455083980#1 455083980#2 455083980#3 455083981#1 455083982#0 455083983#0 455083984#0 455083985 455083986 455083987 455083989 455083992 455083993#1 455083994#1 455083996 455084002 455084003 455713130#0 455713130#1 455722367 455722369 456314146 456314147#0 456314148 456314150#0 456315708 456315709 456316923 456316924 456316925 456318007 456318008 456318009 456321034 456345791 456874507 456874546#0 456874546#1 458245869#0 458245870 458264621 458303421 458438675 458438683 458450994#0 458450994#1 461254932#1 461254933#1 461254933#2 461254933#4 461254933#5 461254934#1 463676555#0 463676555#1 463676555#2 464718640 464718641 464892586 464892587 464936533#1 464936534#0 464943210#1 464943212#0 465380604#0 465380604#1 465380605 465381269 465381271 465408858#0 465408858#1 465408860#1 465408860#2 465411709 465411710#0 465411713#0 465411713#1 465411714#0 465411714#1 465411715#0 465411715#1 465411715#2 465413236 465413249 465414042 465414045 465414050 465416566#0 465416567#0 465416567#2 465416568 465416569 465416571 465416572 465416573#1 465416573#2 465416574#0 465416576#1 465416577 465416578#1 465418900 465585477#0 465585477#1 465649268#0 465649268#1 465649963#0 465649963#1 465649963#2 465649963#3 465649964#0 465649964#1 465649964#2 465649964#3 465649965#0 465649965#1 465653666 465653668 465653669 465653670 465653989 465656094#0 465656094#1 466675150 467514126 4686990#0 4686990#1 4687530#1 473731043 474555858 474555863#0 474555867#0 474555867#1 474555867#2 475694576#1 479129085 479129089#0 479129089#1 479129093 479572754#0 479572754#1 4813607 482327908 48678926 4883068 48921991#0 48921991#1 48921992 48921997#0 48921997#1 48921997#2 48921997#3 48921997#4 48921997#5 48921997#6 48921997#7 48921999 492899793#0 492899793#1 533386017 546047308#0 546047308#1 546047309#1 546096657 546096658 548252183 548252184 548252185#0 548252185#1 548252186 561718399 561718402 561726589 561726590 561726591 561726592 561733176 561733177 561733179 561741709 561741710 561741711 573448690 573448691#0 573448691#1 575535139 60116375 60116376#0 60116376#1 60116376#2 60116377#0 60116377#1 60116378#0 60116379 60116380#1 60116380#3 60116381 60116382#0 60116383 607085378 607184015#1 607184015#2 607184015#3 607184015#4 607184015#5 607184015#6 607184015#7 632315307 632315308#0 632315309 632315310 673699710#0 673699710#1 680327781 687970467 688707556 727853364#2 741889015 741889016 756588989 794905835#0 794905835#1 794905835#2 80194350 828600790#0 828600790#1 828600790#4 828600790#5 828600801#0 828600802 86980320 883378245 884573683 884573684 914737889#0 914737889#1"/>
    <taz id="102" color="51,128,255" edges="-352392846 -374956183#0 -374956183#1 -374956183#2 -38911509#0 -38911509#1 -38911509#2 -38911509#3 -456345788 -456345791 -456365232 -456365233 -456365234#0 -456365234#1 -458271793#1 -458271793#2 -458271794 -464706886 -466654181#0 -466654181#1 -480646021 -480646026 -480646028#0 -480646028#1 -480646028#2 -480646028#3 -810813980#0 -810813980#1 -810813980#2 -810813980#3 -810813980#4 -810813980#5 107583311 108458954#0 108458954#1 108458955#0 109776829 109776833#0 110420791 111765914 111765915 111765916 111765917#0 111765917#1 111767235 111771059 113751454 129811153#0 129811153#1 132093450#0 132093450#1 133806978 133806979 134811809#0 134811809#1 143920958#0 143920958#1 143920958#2 15834351 15914788#0 15914788#1 15914788#2 165217770#0 165217771#0 165217806 165217827#0 165217839#1 165217870#1 165257881#1 165265050#0 165265050#1 165265050#2 165265050#3 165265050#4 165265050#5 165265050#6 165265057#0 165265057#1 165265058 165265060#0 165265060#1 165265060#2 165265060#3 165265060#4 165265060#7 165322228#0 165322228#1 165325229 165325650 184205746 19893613#0 19893613#1 19895495 19895498 19896203#0 19900941 19900942 20112438 20178495#0 20178495#1 20318107 20318109#0 20318109#1 20318109#3 20318109#4 20318114 20318122#1 20318125 20318126 20320553 222088594 222088688#0 222088906 222089039 23027200#0 23027211 23027212 23027246 231387458#0 231387458#1 231387459 231387460#1 242961307#1 242961307#2 245655774 25877313 26286768 263213889#0 263213889#1 263213891#0 26699202#0 26699202#1 274693142#0 274693142#1 274693142#2 274693142#3 274693150#2 274693150#3 274693150#4 274693150#5 274693150#6 298105963 298106016 313629696 31755773#2 329067231#7 329384208 329693415#0 329693415#1 329694552#0 329694554#0 329694554#1 329694554#2 329694554#3 329694554#4 329694554#5 329694554#7 329694554#8 329694558 329694559#0 329796314#0 329796314#1 329796314#2 329796316#0 329796316#1 329796316#2 329796316#3 329989224#0 329989224#1 329989226#0 329989911#0 329989911#1 330150435#0 330150435#1 330150435#2 330150435#3 330150435#4 330150435#5 330150736#0 330153470#1 330153472#1 330153472#2 330718542 330718600 330720150 331089332#1 331089332#2 331089332#3 331089342#0 331089342#1 331089342#2 331089342#3 331907686 332017012#0 332017012#1 337432401#0 337432401#1 337432401#2 337432401#3 337432401#4 34286991 352392846 352392847#0 352392847#1 352392847#2 353126988 353126989 354710418#0 354710418#1 354710813#0 354710813#1 354710813#2 360802894#1 361495433 361607070 361815166 361815168 361815169 374954611#1 374954612 374954613 374956181 374956183#0 374956183#1 374956183#2 374956185 374956189#0 37625473#0 37625473#1 376479646#0 376479646#3 376479646#4 376479646#5 376479646#6 376479646#7 376479646#8 376479646#9 37722301#0 37722301#1 377233440#0 377233440#1 37723610#1 385754237 385754241 385754245 385754248 385754251 385754254 385754262#1 38911509#0 38911509#1 38911509#2 38911509#3 393659690#0 393659690#1 393659690#2 393659690#3 393659690#4 393659734 393659757#0 393659757#1 393659757#2 393659757#5 393659757#6 393659758 393674972 393737478 393850368#0 393850368#1 394908447#0 394908447#1 394908447#2 394908447#3 394910074 399697650 408865322#0 408865328 41258630#0 41258630#1 41258630#2 41258631 41258632 41258973#1 41258973#2 41258974#0 41258974#1 41258975#0 41258975#1 41258975#2 413000957#0 413000957#1 414309668#0 414309668#1 414309669#1 414309669#2 41651782 41691765#0 41691765#1 41691766 420427004 420427006 420427007 420427009 420427010 420427011 423716973 423716980 423716981 426646172 426646173 426646174 426646175 428978763 428978765 428978766#0 428978766#1 428978767 4320473#0 4320473#1 4320473#2 4320473#3 4320473#4 4320786#0 4320786#1 4320804 440434601 453255287 453255288#0 453266451 453266452#0 453266452#1 453266453 453266454 453266470 453745797 453745825#1 453949527 453949528 453964887#0 453964892#0 453989308#0 453989308#1 453989309 453989328 453999956#0 454245380 454827462 454842388 454846311 454889964#0 454889964#1 454889965 454889966#0 454889966#1 455083968#1 455083976#0 455083994#1 455083998 455083999#1 455449056#0 455449056#1 455449057 455449058 455449059#0 455449059#1 455449061 455449062 455478683#0 455712867 455712869 455713130#0 455718964 455722367 455722372 456332449 456338617 456343514 456343516 456345788 456353760#0 456355331 456365232 456365233 456365234#0 456365234#1 457889654 457894390#0 457894390#1 457894390#2 457906827 457906828 457906829 457907544#0 457910426 457910427 457910429 457911381 457911384 457912524 457913045#0 457913045#1 457924060 458038153 458271793#1 458271793#2 458271794 458438675 458438683 458450993 458450994#0 458450994#1 458454760 458454763 458454765#0 458454765#1 458454765#2 458454765#3 461254935#1 462516043 463433432 463433433 463433437 463433438 463433439 463825906#1 463825907 463886954 463886955 464706886 464892586 465159973 465196292 465196293 465200449 465202829 465366313 465366314 465366315 465367055 465369624 465381657 465381658 465381659 465384268 465384272 465401962 465401964 465401966 465401969 465408857 465408860#1 465408862 465408864#0 465408864#1 465411711 465411712 465411714#0 465411715#2 465413236 465413237 465413238 465413240#0 465413240#1 465413243#1 465413246#0 465413246#1 465413249 465414952 465414953 465417747 465417748 465420823#0 465420824 465585475 465585476 465585477#1 465586024 465586406 465653665#0 465653665#1 465653673 466654181#0 466654181#1 467514126 4687632#1 474841415#0 474841415#1 474841418#0 474841418#1 475873781#1 475873781#2 475873782 476268107 479146252#0 479146252#1 479146252#2 479146252#3 479146252#4 479146252#5 479146252#6 479146252#7 480646021 480646024 480646026 480646028#0 480646028#1 480646028#2 480646028#3 4813607 48634253 48666272 48666275 48666277#0 48666277#1 48666282 48666285 48666286 48666287 48666292 48666293#0 48666295 48666299#0 48666299#1 4872827 48809176 48809260 48809261 48809471#1 48809471#2 4886314#1 4886314#2 4886366#1 4886374#0 4886375#0 4886375#2 4886375#3 490998039#0 490998039#1 490998039#2 490998039#3 490998039#4 490998039#5 490998039#6 490998039#7 4911698#0 4911698#1 4911698#2 4911698#3 4911698#4 4911698#5 4911721 491781292#0 491781292#1 491781292#2 491781292#3 492899793#0 51431607 51431608 537574328#0 537574328#1 537574328#2 537574328#3 537574328#4 537574330#0 537574330#1 537574330#2 537574330#3 537574330#4 544901382 561490748 562481862 562481866 567717687 573448691#0 573448691#1 588291335 598605733 60116382#0 60116382#1 60116382#2 664696778#0 664696778#1 686625290#0 686625290#1 686625290#2 686625290#3 686625290#4 686625290#5 686625291#0 701913024 707195316#0 707195316#1 714073115 723869799#0 723869799#1 723869799#10 723869799#11 723869799#12 723869799#13 723869799#14 723869799#2 723869799#3 723869799#4 723869799#5 723869799#6 723869799#7 723869799#8 723869799#9 723869805#0 723869805#1 725171455#0 725171455#1 725171455#2 725188612 727856197#0 727856197#1 727856198 728796869#0 728796869#1 728796869#2 731030660 75695420 764000673#0 764000673#1 764000673#2 764000673#3 764000673#4 764000673#5 810813980#0 810813980#1 810813980#2 810813980#3 810813980#4 810813980#5 826567453 826567454 827854628 828600801#0 828600801#1 852435425 852435427 913624202 914737889#1 92352263#1 92352683 95213674 95213675 95213676 95213677 95213678#0 95213678#1 95218178#1 96268485#0 96268486"/>
    <taz id="103" color="51,128,255" edges="-231363441#0 -231363441#1 -231363441#2 -231363441#3 -231363441#4 -231363441#5 -231363441#6 -231363441#7 -231363441#8 -231363441#9 -263821558 -332017023 -409382666#0 -409382666#1 -420967481#0 -420967481#1 -463597238#0 -463597238#1 -463597238#2 -463670190 -537239213#0 -537239213#1 -537239215#1 -714066885 -837662977#1 -841368901 -932048783#0 -932048783#1 -932048783#2 -932048784#0 -932048784#1 -932234249#0 -932398227#0 -946461804 -946486071 -946486077#0 -946491456#0 -946491456#1 -946491456#2 104456616#1 10509454 108154737 108154738#0 108154739#0 108154739#1 108154739#2 108154739#3 108154739#4 108154740 108156540#0 108156540#1 108156541#0 108156541#3 108337556 10981655 10981713 111771062 111771071#1 118116148 118116149 121944004 121944005 122023949 122023968#0 122023976 122024012#0 122024012#1 122076249 125219357#0 125219357#1 125219357#2 125219357#3 125219357#4 125219359 15834714 164831921 165215470 165217814#0 165217814#1 165217814#2 165217814#3 165217814#4 165217829#0 165217829#1 165217829#2 165217829#3 165217829#4 165217829#5 172936694 18373384 18373388 199121723 199121724 199121726 199121727 199121728 199121729 199121731#0 199121731#1 199361848 199361850 200638843#0 200638843#1 200638843#2 200638843#3 200638843#4 200638843#5 20112438 20113476#0 20178489#0 20178489#1 20178489#2 20178489#3 20178595#1 20910570#0 20910570#1 20910572 20998004#0 20998004#1 20998004#2 222843790 23026983 23026994 23027092 23027179 23027190 23027192 23027200#0 231363440#0 231363440#1 231363441#0 231363441#1 231363441#2 231363441#3 231363441#4 231363441#5 231363441#6 231363441#7 231363441#8 231363441#9 231387458#0 24166407 24166415 24166418 24172046 25336362#0 25849886 263213890#1 263213892 263821556 263821557#0 263821557#1 263821558 265250999#0 265250999#1 265250999#2 265250999#3 265250999#4 265250999#5 265251007#0 265251007#1 265251007#2 265251008 279233265 29294767#0 29294767#1 29294767#2 29294767#3 29294767#4 29294767#5 29294767#6 313629696 332017023 338518742#0 35097240 35097242 35165656 352905264 353126987 354710417#0 354710417#1 357570111 361495878#0 361495878#1 361495878#5 366902787#0 366902787#1 366902787#2 366902787#3 366902787#4 366902787#5 366902787#6 366902788#0 367708221#1 367724562 367724566 367724569 367724570 367724575 367724576 367724579 367724580 369168873 37722303 37722304 37807544 385754237 385754262#1 385754262#2 39179678 39180619 39180620 39597281 399681575 399681577 399681578 40033796#0 40033796#1 40033798#0 40033798#1 40033799#0 40033799#1 40033799#2 400689714#0 400689714#1 400689714#2 400689714#3 400689714#4 400689714#5 400689715#1 400689715#2 400849885 401987800 40641510#0 40641510#1 406459463 40653791 40662762 40662763 40662765 40662766 40662769 40662770 40662771#0 40662771#1 40662773 40662774 40662776 40662780 40662781 40662784 409382666#0 409382666#1 411213296 41651782 41651789#0 41651789#1 41691766 420967481#0 420967481#1 422668952#0 422668952#1 422668952#2 422668952#3 422668952#4 422668952#5 422668952#6 422668952#7 428978767 430814807#0 430814807#1 430814807#2 430814807#3 430822795#0 430822795#1 430822795#2 430822795#3 430875640 4320292 435580887 435580889 439710220 439710221 440261890 448169140 451065099#0 451065099#1 453255286 453255288#0 453299274#0 453299274#1 453299274#2 453299274#3 453299274#4 453299274#5 453299275 453299276 453299279 453299280 453299281 453684370 453684371 453684373 453684374 453688070 453692660#0 453692660#1 453692661 453695845 453695847 453701037 453701039 453701040 453701591 453701592 453702122 453702123 453702124 453702735 453703243 453703244 453703786 453703787 453705328 453705329 453706326 453957423 453957426 453962672 453962673 453995070#0 453995070#1 453995070#2 453995070#3 453995070#4 453995070#5 453995070#6 454188457#0 454188458#0 454754490 454754491 454754492 454754493 454754496#1 454864989 454864991 454873315 454873316 454873317 456874516#0 456874516#1 456874516#10 456874516#11 456874516#2 456874516#3 456874516#4 456874516#5 456874516#6 456874516#7 456874516#8 456874516#9 458288806 462511624 462512865 462777292 462777293 462779677#0 462779677#1 462779677#2 462779677#3 462780740#0 462780740#1 462780740#2 462780741 462780742 462784700 462784701 462784702 463393086 463393087 463393088#0 463393088#1 463395354 463402361 463419858 463419859#0 463419859#1 463419859#2 463419859#3 463420096 463420097 463433633 463433634 463433635#0 463433635#1 463460506 463460507#0 463460507#1 463460507#2 463460507#3 463460507#4 463462432 463462434 463462436#0 463462436#1 463462436#2 463462591#0 463462591#1 463463397#0 463463397#1 463464198 463464199 463595256 463597238#0 463597238#1 463597238#2 463606613 463624798 463667722 463667723 463670190 463671311#0 463671311#1 463671311#2 463671313#0 463671313#1 463671314 463671427 463671428#0 463671428#1 463671429 463676555#3 463676555#4 463676555#5 463676555#6 463676555#7 463676555#8 463676555#9 463677228 463677229 463677230#0 463677230#1 465172942 466331202#0 466331202#1 466331202#2 466331202#3 466331202#4 466331202#5 466331202#6 466654181#0 467936382#5 473383742 473728693 473728694#0 473728694#1 473733101#0 473733101#1 474809315 475256544 48422487 48422488 48422491 48422492 48422493 48422494 48422495 48422496 48422497 48422498 48422499 48422500 48422501 48422502 48422504 48422505 48422507 48422508 48422509 48422510 48424805 48424813 48424814 48424818#0 48424818#1 48424818#2 48424818#3 48424830 48424831 48424832 48424833 48424836 48424840 48424841 48424849 48424852 48424856#0 48424857#0 48425752 48584249 48666271 48666275 48666276#0 48666276#1 48666277#1 48666278 48666280 48666281 48666284 48666290 48666291 48666297 48666298 48666299#0 48666300 48666301 48678871#0 4886313 490695979 490697891 49885490 499649506 509777662 509777679 509777695 509777703 509777709 509777718 515042290#0 516398719#1 518860901 518953770 52067269#0 52067269#1 52135941 521922035 52444134 52444135#0 52444135#1 527846260#0 527846260#1 527847452 537239213#0 537239213#1 537239215#1 538358462 539307664 539307665 545129724 545490137#0 545490137#1 545550691 545940065 545940069 546124282 548249775 548252185#1 548479367 548611938 548611939 554956420 561501435 561501436 561501437 561501438 561501439 561501440 561511406 561511409 561782606 561782607 562478722 562478724 562489195#0 562489195#1 562489196 562489197 572187119 592041104 594774732 594774733 598605733 5990362 612020258 612020259 612020260 612020261 612020262 633924446 639785878 640638138 641600041 643120997 653814228 653814231 657730942 675208624 675208627 675208632 675208634 677782935 677782936 677782937 678887672#0 678887672#1 678887672#2 678887672#3 678887672#5 678887672#6 678887672#7 680917017 680917018#1 685116207 685468121 687959819 692642798 693116430 693116431 693116432 701397806#1 708702278#0 708702278#1 714066885 714073115 714073116 718132175 725232926 726172726#0 726172726#1 730000994 740263120#0 740263120#1 740263120#2 740263120#3 740263120#4 740263120#5 740263120#6 740263120#7 742062735 746252346 783324463#0 792160913#0 792160913#1 792160913#2 794460201 817033515 827858605 828301964#0 837662974 837662976 837662977#1 841368901 855135536 86121520 917311608 928258696 928258697#0 928258697#1 928258709 928258710 928258711 928258712 928258713 928273801 928273802 928273803 928273804 928273805 928273806 928292352#0 928292354 928292355 928292356#0 928292357 928292972 931410788 931599855#0 931599856#0 931620129#0 931620130 931620131#0 931620131#1 931620133 931620134#0 931620134#1 931715440 931715441 931715442#0 931715442#1 931715469 931715470 931746129 931880645 931880665 931880666 931880679#0 931880680 931880682 931961735#0 931961736#0 931961736#1 931961749#1 931961784#0 931961784#1 931961790#0 931962927 931965976 931968925 931968926 931968927#0 931968928 931978913 932011425 932011426#0 932011426#1 932011427 932011428 932011429 932011430 932011431 932011432 932011437 932011438 932011439 932011440 932018961#0 932018962#0 932018963 932048759 932048780 932048782 932048783#0 932048783#1 932048783#2 932048784#0 932048784#1 932048790#0 932048790#1 932050175 932227739#0 932227739#1 932229877#0 932229877#1 932234173#0 932234238#1 932234238#2 932234238#3 932234238#4 932234238#5 932234249#0 932237750#0 932237750#1 932237751 932237752#0 932237752#1 932397301#0 932397301#1 932397302 932398227#0 932627442 932627857 932628592 932628593 932628594 932667860 932667862 932669863 932669865#0 932669865#1 932669866#0 932669866#1 932670888 932670890 942631401 943955625#0 943955625#1 943955625#2 943955625#3 943955625#4 943955625#5 946461804 946486071 946486077#0 946491456#0 946491456#1 946491456#2 96268484 96268486"/>