<additional>

   <edgeData id="1" file="edgesdensity_trips.xml" />
   
</additional>