<?xml version="1.0" encoding="UTF-8"?>
<!-- generated on 2021-05-25 15:39:47.757002 by gtfs2pt.py v1_9_1+0312-3d3ec1003c
  options: <doubleminus>network CarteMontreal_Sans_Un_Res.net.xml <doubleminus>gtfs gtfs_stm.zip <doubleminus>date 20200907
-->
<additional xmlns:xsi="http://www.w3.org/2001/XMLSchema-instance" xsi:noNamespaceSchemaLocation="http://sumo.dlr.de/xsd/additional_file.xsd">
    <busStop id="609009568:13.30" lane="609009568_0" startPos="0.3036085330282621" endPos="26.30360853302826" friendlyPos="true" name="De Lorimier / Crémazie">
    </busStop>
    <busStop id="164974771:0.00" lane="164974771_0" startPos="0" endPos="13.0" friendlyPos="true" name="Crémazie / Chabot">
    </busStop>
    <busStop id="164974771:37.06" lane="164974771_0" startPos="24.05873851064308" endPos="50.05873851064308" friendlyPos="true" name="Crémazie / de Bordeaux">
    </busStop>
    <busStop id="393856392:0.22" lane="393856392_0" startPos="0" endPos="13.222154912585978" friendlyPos="true" name="De Lorimier / Jarry">
    </busStop>
    <busStop id="341094449#0:225.36" lane="341094449#0_0" startPos="212.35946339482527" endPos="238.35946339482527" friendlyPos="true" name="De Lorimier / Tillemont">
    </busStop>
    <busStop id="341094449#1:186.51" lane="341094449#1_0" startPos="173.5075309870507" endPos="199.5075309870507" friendlyPos="true" name="De Lorimier / Villeray">
    </busStop>
    <busStop id="341094446#2:100.72" lane="341094446#2_0" startPos="87.71685019298587" endPos="113.71685019298587" friendlyPos="true" name="De Lorimier / Everett">
    </busStop>
    <busStop id="464121419:204.83" lane="464121419_0" startPos="191.8257496265422" endPos="217.8257496265422" friendlyPos="true" name="De Lorimier / Jean-Talon">
    </busStop>
    <busStop id="341094444:308.09" lane="341094444_0" startPos="295.09337645465604" endPos="321.09337645465604" friendlyPos="true" name="De Lorimier / Bélanger">
    </busStop>
    <busStop id="475308628:31.53" lane="475308628_0" startPos="18.534376600687185" endPos="44.53437660068718" friendlyPos="true" name="De Lorimier / Saint-Zotique">
    </busStop>
    <busStop id="341093418:302.32" lane="341093418_0" startPos="289.3224955429355" endPos="315.3224955429355" friendlyPos="true" name="De Lorimier / Beaubien">
    </busStop>
    <busStop id="341093406:295.59" lane="341093406_0" startPos="282.58768996072274" endPos="308.58768996072274" friendlyPos="true" name="De Lorimier / de Bellechasse">
    </busStop>
    <busStop id="452019786:73.65" lane="452019786_0" startPos="60.64949383960513" endPos="86.64949383960513" friendlyPos="true" name="De Lorimier / Rosemont">
    </busStop>
    <busStop id="465125692:64.48" lane="465125692_0" startPos="51.48220025421017" endPos="77.48220025421017" friendlyPos="true" name="De Lorimier / Holt">
    </busStop>
    <busStop id="465125690:113.49" lane="465125690_0" startPos="100.48632340506886" endPos="126.48632340506886" friendlyPos="true" name="De Lorimier / Masson">
    </busStop>
    <busStop id="470242939:27.27" lane="470242939_0" startPos="14.26623270383999" endPos="40.26623270383999" friendlyPos="true" name="De Lorimier / Laurier">
    </busStop>
    <busStop id="454228587:43.31" lane="454228587_0" startPos="30.306105405279105" endPos="56.306105405279105" friendlyPos="true" name="De Lorimier / Saint-Joseph">
    </busStop>
    <busStop id="454228586:116.33" lane="454228586_0" startPos="103.32739966660105" endPos="129.32739966660105" friendlyPos="true" name="De Lorimier / Gilford">
    </busStop>
    <busStop id="341093396:307.76" lane="341093396_0" startPos="294.7643173775725" endPos="320.7643173775725" friendlyPos="true" name="De Lorimier / du Mont-Royal">
    </busStop>
    <busStop id="464106929:195.19" lane="464106929_0" startPos="182.1868005493901" endPos="208.1868005493901" friendlyPos="true" name="De Lorimier / Marie-Anne">
    </busStop>
    <busStop id="452615673:115.97" lane="452615673_0" startPos="102.96786299618533" endPos="128.96786299618532" friendlyPos="true" name="De Lorimier / Rachel">
    </busStop>
    <busStop id="-463851995:83.05" lane="-463851995_0" startPos="70.04710038540837" endPos="96.04710038540837" friendlyPos="true" name="Rachel / Parthenais">
    </busStop>
    <busStop id="-329065115#0:30.12" lane="-329065115#0_0" startPos="17.120327801907273" endPos="43.12032780190727" friendlyPos="true" name="Parthenais / Gauthier">
    </busStop>
    <busStop id="-329065115#0:67.44" lane="-329065115#0_0" startPos="54.44353010055917" endPos="80.44353010055917" friendlyPos="true" name="Parthenais / Sherbrooke">
    </busStop>
    <busStop id="-463433446#1:4.02" lane="-463433446#1_0" startPos="0" endPos="17.019069188700566" friendlyPos="true" name="Parthenais / Larivière">
    </busStop>
    <busStop id="463433445:0.00" lane="463433445_0" startPos="0" endPos="13.0" friendlyPos="true" name="Parthenais / Ontario">
    </busStop>
    <busStop id="393867357#0:3.61" lane="393867357#0_0" startPos="0" endPos="16.60767487247749" friendlyPos="true" name="Parthenais / Logan">
    </busStop>
    <busStop id="393867357#0:5.58" lane="393867357#0_0" startPos="0" endPos="18.57641506501957" friendlyPos="true" name="Parthenais / De Maisonneuve">
    </busStop>
    <busStop id="393867357#1:110.37" lane="393867357#1_0" startPos="97.36573904744674" endPos="123.36573904744674" friendlyPos="true" name="De Maisonneuve / De Lorimier">
    </busStop>
    <busStop id="423716981:77.11" lane="423716981_0" startPos="64.1128015334552" endPos="90.1128015334552" friendlyPos="true" name="Station Papineau (Dorion / Sainte-Catherine)">
    </busStop>
    <busStop id="723869805#1:42.19" lane="723869805#1_0" startPos="29.18635799139905" endPos="55.18635799139905" friendlyPos="true" name="Station Papineau (Dorion / Sainte-Catherine)">
    </busStop>
    <busStop id="393850368#1:30.69" lane="393850368#1_0" startPos="17.686671615517664" endPos="43.68667161551767" friendlyPos="true" name="De Lorimier / De Maisonneuve">
    </busStop>
    <busStop id="25877021#0:8.24" lane="25877021#0_0" startPos="0" endPos="21.242343912407385" friendlyPos="true" name="De Lorimier / Logan">
    </busStop>
    <busStop id="25877021#1:144.29" lane="25877021#1_0" startPos="131.29390078044037" endPos="157.29390078044037" friendlyPos="true" name="De Lorimier / Ontario">
    </busStop>
    <busStop id="341093394#2:70.36" lane="341093394#2_0" startPos="57.36368253274303" endPos="83.36368253274303" friendlyPos="true" name="De Lorimier / de Rouen">
    </busStop>
    <busStop id="470669096#1:191.96" lane="470669096#1_0" startPos="178.96324768324564" endPos="204.96324768324564" friendlyPos="true" name="De Lorimier / Sherbrooke">
    </busStop>
    <busStop id="131630965#0:181.06" lane="131630965#0_0" startPos="168.06433986281112" endPos="194.06433986281112" friendlyPos="true" name="De Lorimier / Gauthier">
    </busStop>
    <busStop id="131630965#1:183.00" lane="131630965#1_0" startPos="169.99543479716408" endPos="195.99543479716408" friendlyPos="true" name="De Lorimier / Rachel">
    </busStop>
    <busStop id="-452615672:73.65" lane="-452615672_0" startPos="60.649785440740544" endPos="86.64978544074054" friendlyPos="true" name="De Lorimier / Marie-Anne">
    </busStop>
    <busStop id="-464106929:199.07" lane="-464106929_0" startPos="186.06571291754292" endPos="212.06571291754292" friendlyPos="true" name="De Lorimier / du Mont-Royal">
    </busStop>
    <busStop id="-341093396:300.16" lane="-341093396_0" startPos="287.164710521752" endPos="313.164710521752" friendlyPos="true" name="De Lorimier / Gilford">
    </busStop>
    <busStop id="-454228586:116.54" lane="-454228586_0" startPos="103.54283686911288" endPos="129.54283686911288" friendlyPos="true" name="De Lorimier / Saint-Joseph">
    </busStop>
    <busStop id="-463631214:22.47" lane="-463631214_0" startPos="9.471539862904567" endPos="35.471539862904564" friendlyPos="true" name="De Lorimier / Laurier">
    </busStop>
    <busStop id="-90829301:226.51" lane="-90829301_0" startPos="213.5079704975844" endPos="239.5079704975844" friendlyPos="true" name="De Lorimier / Masson">
    </busStop>
    <busStop id="341093400:106.95" lane="341093400_0" startPos="93.95315222758542" endPos="119.95315222758542" friendlyPos="true" name="De Lorimier / Holt">
    </busStop>
    <busStop id="-341093402:59.49" lane="-341093402_0" startPos="46.48627611830806" endPos="72.48627611830807" friendlyPos="true" name="De Lorimier / Rosemont">
    </busStop>
    <busStop id="-341093403:160.84" lane="-341093403_0" startPos="147.84438863161824" endPos="173.84438863161824" friendlyPos="true" name="De Lorimier / de Bellechasse">
    </busStop>
    <busStop id="-341093406:298.07" lane="-341093406_0" startPos="285.071132888893" endPos="311.071132888893" friendlyPos="true" name="De Lorimier / Beaubien">
    </busStop>
    <busStop id="-341093418:299.45" lane="-341093418_0" startPos="286.4454132055039" endPos="312.4454132055039" friendlyPos="true" name="De Lorimier / Saint-Zotique">
    </busStop>
    <busStop id="-341094442:16.30" lane="-341094442_0" startPos="3.2994745874559506" endPos="29.29947458745595" friendlyPos="true" name="De Lorimier / Bélanger">
    </busStop>
    <busStop id="-341094444:305.05" lane="-341094444_0" startPos="292.0460385887478" endPos="318.0460385887478" friendlyPos="true" name="De Lorimier / Jean-Talon">
    </busStop>
    <busStop id="-341094446#3:87.25" lane="-341094446#3_0" startPos="74.24675621798136" endPos="100.24675621798136" friendlyPos="true" name="De Lorimier / Everett">
    </busStop>
    <busStop id="-341094446#0:49.33" lane="-341094446#0_0" startPos="36.32827509913856" endPos="62.32827509913856" friendlyPos="true" name="De Lorimier / Villeray">
    </busStop>
    <busStop id="-341094449#1:180.16" lane="-341094449#1_0" startPos="167.15836309770833" endPos="193.15836309770833" friendlyPos="true" name="De Lorimier / Tillemont">
    </busStop>
    <busStop id="-341094449#0:239.84" lane="-341094449#0_0" startPos="226.84317894952125" endPos="252.84317894952125" friendlyPos="true" name="De Lorimier / Jarry">
    </busStop>
    <busStop id="311420917#6:0.00" lane="311420917#6_0" startPos="0" endPos="13.0" friendlyPos="true" name="Station Crémazie Nord (Crémazie / Berri)">
    </busStop>
    <busStop id="311420917#9:79.31" lane="311420917#9_0" startPos="66.3140334689917" endPos="92.3140334689917" friendlyPos="true" name="Crémazie / De Gaspé">
    </busStop>
    <busStop id="311420917#11:60.73" lane="311420917#11_0" startPos="47.72991519835952" endPos="73.72991519835952" friendlyPos="true" name="Crémazie / Saint-Laurent">
    </busStop>
    <busStop id="37636650#4:2.61" lane="37636650#4_0" startPos="0" endPos="15.609288084316379" friendlyPos="true" name="Crémazie / Clark">
    </busStop>
    <busStop id="37636650#6:57.03" lane="37636650#6_0" startPos="44.028430460712144" endPos="70.02843046071214" friendlyPos="true" name="Crémazie / de Reims">
    </busStop>
    <busStop id="37636650#8:66.22" lane="37636650#8_0" startPos="53.224976724893594" endPos="79.2249767248936" friendlyPos="true" name="Crémazie / de l'Esplanade">
    </busStop>
    <busStop id="37636650#11:56.67" lane="37636650#11_0" startPos="43.67069848654146" endPos="69.67069848654145" friendlyPos="true" name="Crémazie / Tolhurst">
    </busStop>
    <busStop id="459144152:0.00" lane="459144152_0" startPos="0" endPos="13.0" friendlyPos="true" name="Crémazie / de l'Acadie">
    </busStop>
    <busStop id="38080676:38.07" lane="38080676_0" startPos="25.068724810378313" endPos="51.06872481037831" friendlyPos="true" name="Côte-de-Liesse / No 1955">
    </busStop>
    <busStop id="934245652#0:47.13" lane="934245652#0_0" startPos="34.134027937036585" endPos="60.134027937036585" friendlyPos="true" name="Côte-de-Liesse Nord / Lebeau">
    </busStop>
    <busStop id="933872831#1:37.57" lane="933872831#1_0" startPos="24.57167216081288" endPos="50.57167216081288" friendlyPos="true" name="Côte-de-Liesse / Montpellier">
    </busStop>
    <busStop id="933872831#1:213.94" lane="933872831#1_0" startPos="200.93516552292306" endPos="226.93516552292306" friendlyPos="true" name="Côte-de-Liesse / No 3155">
    </busStop>
    <busStop id="933872831#1:301.99" lane="933872831#1_0" startPos="288.9873627173166" endPos="314.9873627173166" friendlyPos="true" name="Côte-de-Liesse Nord / Houde">
    </busStop>
    <busStop id="933660202#0:38.12" lane="933660202#0_0" startPos="25.117431958758544" endPos="51.117431958758544" friendlyPos="true" name="Côte-de-Liesse Nord / Laperrière">
    </busStop>
    <busStop id="933660202#0:222.69" lane="933660202#0_0" startPos="209.69395945998846" endPos="235.69395945998846" friendlyPos="true" name="Côte-de-Liesse Nord / Hébert">
    </busStop>
    <busStop id="931048086#0:54.75" lane="931048086#0_0" startPos="41.74573974740349" endPos="67.74573974740349" friendlyPos="true" name="Côte-de-Liesse / Sainte-Croix">
    </busStop>
    <busStop id="324615479#4:78.69" lane="324615479#4_0" startPos="65.693282635885" endPos="91.693282635885" friendlyPos="true" name="Décarie / No 255">
    </busStop>
    <busStop id="436393532:0.58" lane="436393532_0" startPos="0" endPos="13.581324951610176" friendlyPos="true" name="Saint-Louis / Gohier">
    </busStop>
    <busStop id="398943964:0.00" lane="398943964_0" startPos="0" endPos="13.0" friendlyPos="true" name="Côte-de-Liesse Nord / No 5415">
    </busStop>
    <busStop id="358647471:164.42" lane="358647471_0" startPos="151.42488386514873" endPos="177.42488386514873" friendlyPos="true" name="Côte-de-Liesse / No 5805">
    </busStop>
    <busStop id="929692857:65.49" lane="929692857_0" startPos="52.49473505347747" endPos="78.49473505347747" friendlyPos="true" name="Passerelle Isabey-Darnley (Côte-de-Liesse/Isabey)">
    </busStop>
    <busStop id="929692858#1:247.66" lane="929692858#1_0" startPos="234.66122271953344" endPos="260.66122271953344" friendlyPos="true" name="Côte-de-Liesse / No 6015">
    </busStop>
    <busStop id="370280098:42.29" lane="370280098_0" startPos="29.286123216872866" endPos="55.286123216872866" friendlyPos="true" name="Côte-de-Liesse / Cavendish">
    </busStop>
    <busStop id="930660961:139.85" lane="930660961_0" startPos="126.85404216192828" endPos="152.85404216192828" friendlyPos="true" name="Côte-de-Liesse / No 6395">
    </busStop>
    <busStop id="930660961:422.34" lane="930660961_0" startPos="409.34416384449315" endPos="435.34416384449315" friendlyPos="true" name="Passerelle Barr (Côte-de-Liesse / No 6665)">
    </busStop>
    <busStop id="-165213099:7.78" lane="-165213099_0" startPos="0" endPos="20.784540240327956" friendlyPos="true" name="Côte-de-Liesse Nord / McArthur">
    </busStop>
    <busStop id="-22817265#0:511.72" lane="-22817265#0_0" startPos="498.7180887924851" endPos="524.7180887924851" friendlyPos="true" name="Côte-de-Liesse / Griffith">
    </busStop>
    <busStop id="930661031#5:183.67" lane="930661031#5_0" startPos="170.6731431949908" endPos="196.6731431949908" friendlyPos="true" name="Côte-de-Liesse / Montée de Liesse">
    </busStop>
    <busStop id="151965421:23.58" lane="151965421_0" startPos="10.576423036033017" endPos="36.57642303603302" friendlyPos="true" name="Montée de Liesse / Côte-de-Liesse">
    </busStop>
    <busStop id="404288562:152.01" lane="404288562_0" startPos="139.0140590262624" endPos="165.0140590262624" friendlyPos="true" name="Montée de Liesse / No 180">
    </busStop>
    <busStop id="-464692748#1:152.27" lane="-464692748#1_0" startPos="139.2686895454735" endPos="165.2686895454735" friendlyPos="true" name="Montée de Liesse / Bourg">
    </busStop>
    <busStop id="-464692748#0:195.85" lane="-464692748#0_0" startPos="182.85172024180528" endPos="208.85172024180528" friendlyPos="true" name="Montée de Liesse / No 110">
    </busStop>
    <busStop id="-464692748#0:339.27" lane="-464692748#0_0" startPos="326.267960464933" endPos="352.267960464933" friendlyPos="true" name="Montée de Liesse / Hickmore">
    </busStop>
    <busStop id="530929052:149.86" lane="530929052_0" startPos="136.86235772091487" endPos="162.86235772091487" friendlyPos="true" name="Hickmore / No 4500">
    </busStop>
    <busStop id="530929052:383.17" lane="530929052_0" startPos="370.17369629810105" endPos="396.17369629810105" friendlyPos="true" name="Hickmore / No 4300">
    </busStop>
    <busStop id="530929052:559.58" lane="530929052_0" startPos="546.5786105913207" endPos="572.5786105913207" friendlyPos="true" name="Mega Bloks">
    </busStop>
    <busStop id="567520420#1:85.12" lane="567520420#1_0" startPos="72.12388786254672" endPos="98.12388786254672" friendlyPos="true" name="Côte-de-Liesse / No 6015">
    </busStop>
    <busStop id="370280099#0:42.63" lane="370280099#0_0" startPos="29.627424160695554" endPos="55.627424160695554" friendlyPos="true" name="Côte-de-Liesse / Cavendish">
    </busStop>
    <busStop id="370280099#0:250.91" lane="370280099#0_0" startPos="237.90699268219214" endPos="263.90699268219214" friendlyPos="true" name="Côte-de-Liesse / No 6395">
    </busStop>
    <busStop id="22818355:122.37" lane="22818355_0" startPos="109.36835446413619" endPos="135.3683544641362" friendlyPos="true" name="Passerelle Barr (Côte-de-Liesse / No 6665)">
    </busStop>
    <busStop id="-530929052:58.69" lane="-530929052_0" startPos="45.68671000397139" endPos="71.6867100039714" friendlyPos="true" name="Mega Bloks">
    </busStop>
    <busStop id="-530929052:511.66" lane="-530929052_0" startPos="498.6608759923748" endPos="524.6608759923748" friendlyPos="true" name="Hickmore / No 4500">
    </busStop>
    <busStop id="464692748#0:75.61" lane="464692748#0_0" startPos="62.60838151325133" endPos="88.60838151325133" friendlyPos="true" name="Montée de Liesse / Hickmore">
    </busStop>
    <busStop id="464692748#0:213.02" lane="464692748#0_0" startPos="200.01922096608942" endPos="226.01922096608942" friendlyPos="true" name="Montée de Liesse / No 110">
    </busStop>
    <busStop id="464692748#0:401.42" lane="464692748#0_0" startPos="388.41892254000476" endPos="414.41892254000476" friendlyPos="true" name="Montée de Liesse / Bourg">
    </busStop>
    <busStop id="47653039:90.65" lane="47653039_0" startPos="77.6515238529077" endPos="103.6515238529077" friendlyPos="true" name="Montée de Liesse / Côte-de-Liesse">
    </busStop>
    <busStop id="151965420#0:327.95" lane="151965420#0_0" startPos="314.94991291303387" endPos="340.94991291303387" friendlyPos="true" name="Côte-de-Liesse / No 7520">
    </busStop>
    <busStop id="-165213099:50.42" lane="-165213099_0" startPos="37.416984866706784" endPos="63.416984866706784" friendlyPos="true" name="Côte-de-Liesse / Hickmore">
    </busStop>
    <busStop id="22818356:66.22" lane="22818356_0" startPos="53.21931215374585" endPos="79.21931215374585" friendlyPos="true" name="Côte-de-Liesse / Barr">
    </busStop>
    <busStop id="152977937#3:165.93" lane="152977937#3_0" startPos="152.93122128827918" endPos="178.93122128827918" friendlyPos="true" name="Passerelle Barr (Côte-de-Liesse / No 6600)">
    </busStop>
    <busStop id="22818354:158.01" lane="22818354_0" startPos="145.00989407367803" endPos="171.00989407367803" friendlyPos="true" name="Côte-de-Liesse / No 6400">
    </busStop>
    <busStop id="930660979:49.86" lane="930660979_0" startPos="36.86261739790843" endPos="62.86261739790843" friendlyPos="true" name="Côte-de-Liesse / Cavendish">
    </busStop>
    <busStop id="370280104:219.39" lane="370280104_0" startPos="206.39463567485183" endPos="232.39463567485183" friendlyPos="true" name="Côte-de-Liesse / Dalton">
    </busStop>
    <busStop id="930340302#1:74.22" lane="930340302#1_0" startPos="61.217516119160464" endPos="87.21751611916046" friendlyPos="true" name="Passerelle Isabey-Darnley (Côte-de-Liesse/Isabey)">
    </busStop>
    <busStop id="481548548#0:146.62" lane="481548548#0_0" startPos="133.6228883860705" endPos="159.6228883860705" friendlyPos="true" name="Côte-de-Liesse / No 5750">
    </busStop>
    <busStop id="21181190#0:0.00" lane="21181190#0_0" startPos="0" endPos="13.0" friendlyPos="true" name="Côte-de-Liesse / No 5430">
    </busStop>
    <busStop id="544667750:143.40" lane="544667750_0" startPos="130.399474292415" endPos="156.399474292415" friendlyPos="true" name="Côte-de-Liesse / Décarie">
    </busStop>
    <busStop id="74777417:54.75" lane="74777417_0" startPos="41.7518430252448" endPos="67.7518430252448" friendlyPos="true" name="Côte-de-Liesse / Décarie">
    </busStop>
    <busStop id="931053510#0:33.07" lane="931053510#0_0" startPos="20.071881760457494" endPos="46.071881760457494" friendlyPos="true" name="Côte-de-Liesse / Lucerne">
    </busStop>
    <busStop id="933872731#0:4.71" lane="933872731#0_0" startPos="0" endPos="17.705162903330425" friendlyPos="true" name="Côte-de-Liesse / Graham">
    </busStop>
    <busStop id="933872732:13.14" lane="933872732_0" startPos="0.13646298689984349" endPos="26.136462986899843" friendlyPos="true" name="Côte-de-Liesse / Saint-Clare">
    </busStop>
    <busStop id="933872737:21.07" lane="933872737_0" startPos="8.069903631676993" endPos="34.06990363167699" friendlyPos="true" name="Côte-de-Liesse / Macneil">
    </busStop>
    <busStop id="933872747#0:82.18" lane="933872747#0_0" startPos="69.18221936214562" endPos="95.18221936214562" friendlyPos="true" name="Côte-de-Liesse / Sunset">
    </busStop>
    <busStop id="933877321:166.10" lane="933877321_0" startPos="153.10116545424077" endPos="179.10116545424077" friendlyPos="true" name="Côte-de-Liesse / Parc Fleming">
    </busStop>
    <busStop id="933877321:304.62" lane="933877321_0" startPos="291.62373650721077" endPos="317.62373650721077" friendlyPos="true" name="Côte-de-Liesse / Villa Mont-Royal">
    </busStop>
    <busStop id="934342645:44.12" lane="934342645_0" startPos="31.115451451301006" endPos="57.115451451301006" friendlyPos="true" name="Côte-de-Liesse / Rockland">
    </busStop>
    <busStop id="361430888:68.62" lane="361430888_0" startPos="55.61730234224366" endPos="81.61730234224366" friendlyPos="true" name="Centre Rockland">
    </busStop>
    <busStop id="459149604:22.13" lane="459149604_0" startPos="9.132110074017294" endPos="35.13211007401729" friendlyPos="true" name="Crémazie / de l'Acadie">
    </busStop>
    <busStop id="934339068:63.51" lane="934339068_0" startPos="50.50699580983349" endPos="76.50699580983348" friendlyPos="true" name="Crémazie / de l'Acadie">
    </busStop>
    <busStop id="934339068:210.24" lane="934339068_0" startPos="197.23941355255968" endPos="223.23941355255968" friendlyPos="true" name="Crémazie / d'Outremont">
    </busStop>
    <busStop id="934329182#0:197.36" lane="934329182#0_0" startPos="184.3638177384653" endPos="210.3638177384653" friendlyPos="true" name="Crémazie / de l'Esplanade">
    </busStop>
    <busStop id="934329182#2:45.37" lane="934329182#2_0" startPos="32.36682658047979" endPos="58.36682658047979" friendlyPos="true" name="Crémazie / de Reims">
    </busStop>
    <busStop id="934329182#5:0.00" lane="934329182#5_0" startPos="0" endPos="13.0" friendlyPos="true" name="Crémazie / Clark">
    </busStop>
    <busStop id="37636651#0:23.76" lane="37636651#0_0" startPos="10.76382826359453" endPos="36.76382826359453" friendlyPos="true" name="Crémazie / Saint-Laurent">
    </busStop>
    <busStop id="37636651#3:49.65" lane="37636651#3_0" startPos="36.65084599790793" endPos="62.65084599790793" friendlyPos="true" name="Crémazie / Casgrain">
    </busStop>
    <busStop id="874046660#0:61.35" lane="874046660#0_0" startPos="48.348789664661176" endPos="74.34878966466118" friendlyPos="true" name="Crémazie / Henri-Julien">
    </busStop>
    <busStop id="530901769#1:22.17" lane="530901769#1_0" startPos="9.167998361154272" endPos="35.167998361154275" friendlyPos="true" name="Station Crémazie Sud (Crémazie / Berri)">
    </busStop>
    <busStop id="608430715#1:20.95" lane="608430715#1_0" startPos="7.946720085214217" endPos="33.94672008521422" friendlyPos="true" name="Station Vendôme">
    </busStop>
    <busStop id="316470333:203.64" lane="316470333_0" startPos="190.64321499923068" endPos="216.64321499923068" friendlyPos="true" name="Décarie / Sherbrooke">
    </busStop>
    <busStop id="-463869046#0:165.43" lane="-463869046#0_0" startPos="152.42619611764403" endPos="178.42619611764403" friendlyPos="true" name="Côte-Saint-Antoine / Prud'homme">
    </busStop>
    <busStop id="932849833:156.44" lane="932849833_0" startPos="143.43937206445713" endPos="169.43937206445713" friendlyPos="true" name="Côte-Saint-Antoine / Botrel">
    </busStop>
    <busStop id="463865917#0:6.43" lane="463865917#0_0" startPos="0" endPos="19.43086365195511" friendlyPos="true" name="Côte-Saint-Antoine / Girouard">
    </busStop>
    <busStop id="463865917#1:163.55" lane="463865917#1_0" startPos="150.5515328555858" endPos="176.5515328555858" friendlyPos="true" name="Girouard / Notre-Dame-de-Grâce">
    </busStop>
    <busStop id="463869346#2:69.28" lane="463869346#2_0" startPos="56.277538188169814" endPos="82.27753818816981" friendlyPos="true" name="Girouard / Duquette">
    </busStop>
    <busStop id="164615369#0:65.65" lane="164615369#0_0" startPos="52.64701824632341" endPos="78.64701824632341" friendlyPos="true" name="Girouard / de Monkland">
    </busStop>
    <busStop id="463876421#1:75.52" lane="463876421#1_0" startPos="62.52004594009277" endPos="88.52004594009277" friendlyPos="true" name="Girouard / Côte-Saint-Luc">
    </busStop>
    <busStop id="-360133550#12:0.00" lane="-360133550#12_0" startPos="0" endPos="13.0" friendlyPos="true" name="Somerled / Oxford">
    </busStop>
    <busStop id="-360133550#11:53.18" lane="-360133550#11_0" startPos="40.178526122142195" endPos="66.17852612214219" friendlyPos="true" name="Somerled / Wilson">
    </busStop>
    <busStop id="159499581:14.62" lane="159499581_0" startPos="1.6226458658095346" endPos="27.622645865809535" friendlyPos="true" name="Somerled / Hingston">
    </busStop>
    <busStop id="-165214766#1:0.00" lane="-165214766#1_0" startPos="0" endPos="13.0" friendlyPos="true" name="Somerled / Grand Boulevard">
    </busStop>
    <busStop id="165214308#6:6.36" lane="165214308#6_0" startPos="0" endPos="19.35561102851863" friendlyPos="true" name="Somerled / Borden">
    </busStop>
    <busStop id="165214308#6:7.87" lane="165214308#6_0" startPos="0" endPos="20.868278249383295" friendlyPos="true" name="Somerled / Cavendish">
    </busStop>
    <busStop id="456390626#2:6.09" lane="456390626#2_0" startPos="0" endPos="19.085340560942377" friendlyPos="true" name="Somerled / Doherty">
    </busStop>
    <busStop id="456390626#2:6.33" lane="456390626#2_0" startPos="0" endPos="19.32703829270657" friendlyPos="true" name="Somerled / West Broadway">
    </busStop>
    <busStop id="456390626#2:292.00" lane="456390626#2_0" startPos="279.0011965774349" endPos="305.0011965774349" friendlyPos="true" name="West Broadway / Fielding">
    </busStop>
    <busStop id="279920210#0:300.06" lane="279920210#0_0" startPos="287.06177717783225" endPos="313.06177717783225" friendlyPos="true" name="West Broadway / Chester">
    </busStop>
    <busStop id="-279920210#1:50.99" lane="-279920210#1_0" startPos="37.98885498458164" endPos="63.98885498458164" friendlyPos="true" name="Connaught / Westmore">
    </busStop>
    <busStop id="-279920210#0:6.55" lane="-279920210#0_0" startPos="0" endPos="19.553455014422575" friendlyPos="true" name="Chester / West Broadway">
    </busStop>
    <busStop id="-279920210#0:300.66" lane="-279920210#0_0" startPos="287.6596354320739" endPos="313.6596354320739" friendlyPos="true" name="West Broadway / Fielding">
    </busStop>
    <busStop id="-456390626#2:311.40" lane="-456390626#2_0" startPos="298.39603401456617" endPos="324.39603401456617" friendlyPos="true" name="Somerled / O'Bryan">
    </busStop>
    <busStop id="-456390626#1:5.26" lane="-456390626#1_0" startPos="0" endPos="18.258100403963173" friendlyPos="true" name="Somerled / Doherty">
    </busStop>
    <busStop id="-165214308#5:7.43" lane="-165214308#5_0" startPos="0" endPos="20.4307744656443" friendlyPos="true" name="Somerled / Cavendish">
    </busStop>
    <busStop id="-165214308#5:10.22" lane="-165214308#5_0" startPos="0" endPos="23.216276289457376" friendlyPos="true" name="Somerled / Borden">
    </busStop>
    <busStop id="-165214766#1:8.83" lane="-165214766#1_0" startPos="0" endPos="21.833529105831722" friendlyPos="true" name="Somerled / Madison">
    </busStop>
    <busStop id="-165214766#1:9.43" lane="-165214766#1_0" startPos="0" endPos="22.43290244041571" friendlyPos="true" name="Somerled / Grand Boulevard">
    </busStop>
    <busStop id="360133550#11:46.90" lane="360133550#11_0" startPos="33.90356622106147" endPos="59.90356622106147" friendlyPos="true" name="Somerled / Wilson">
    </busStop>
    <busStop id="453506594:55.96" lane="453506594_0" startPos="42.959849844042765" endPos="68.95984984404276" friendlyPos="true" name="Somerled / Côte-Saint-Luc">
    </busStop>
    <busStop id="933285596#0:26.85" lane="933285596#0_0" startPos="13.84837898942467" endPos="39.848378989424674" friendlyPos="true" name="Côte-Saint-Luc / Girouard">
    </busStop>
    <busStop id="-933008492#1:238.43" lane="-933008492#1_0" startPos="225.43003084928966" endPos="251.43003084928966" friendlyPos="true" name="Girouard / de Monkland">
    </busStop>
    <busStop id="-463869346#3:58.88" lane="-463869346#3_0" startPos="45.87926485729814" endPos="71.87926485729814" friendlyPos="true" name="Girouard / Duquette">
    </busStop>
    <busStop id="-463869346#1:97.45" lane="-463869346#1_0" startPos="84.45155190487752" endPos="110.45155190487752" friendlyPos="true" name="Girouard / Notre-Dame-de-Grâce">
    </busStop>
    <busStop id="-463869046#1:6.89" lane="-463869046#1_0" startPos="0" endPos="19.89014835321778" friendlyPos="true" name="Notre-Dame-de-Grâce / Décarie">
    </busStop>
    <busStop id="-463869046#0:158.20" lane="-463869046#0_0" startPos="145.19824464135766" endPos="171.19824464135766" friendlyPos="true" name="Décarie / Côte-Saint-Antoine">
    </busStop>