<additional>

   <edgeData id="1" file="edgesdensity_flow.xml" />
   
</additional>