<?xml version="1.0" encoding="UTF-8"?>
<!-- generated on 2021-06-15 10:47:07.766131 by gtfs2pt.py v1_9_1+0312-3d3ec1003c
  options: <doubleminus>network C:\Users\hugue\MontrealTrafficSimulation - Copie\SUMO_tout\input\carte\CarteMontreal_Sans_Un_Res.net.xml <doubleminus>gtfs C:\Users\hugue\TestSUMo\Conparaison\gtfs_stm.zip <doubleminus>date 20200615 <doubleminus>mapperlib MAPPERLIB <doubleminus>repair
-->
<routes xmlns:xsi="http://www.w3.org/2001/XMLSchema-instance" xsi:noNamespaceSchemaLocation="http://sumo.dlr.de/xsd/routes_file.xsd">
    <vehicle id="218444761.0" route="218444761" type="bus" depart="20150" line="10_218444761"/>
    <vehicle id="218444762.0" route="218444762" type="bus" depart="22130" line="10_218444762"/>
    <vehicle id="218444763.0" route="218444761" type="bus" depart="25130" line="10_218444761"/>
    <vehicle id="218444764.0" route="218444762" type="bus" depart="27590" line="10_218444762"/>
    <vehicle id="218444765.0" route="218444761" type="bus" depart="30650" line="10_218444761"/>
    <vehicle id="218444766.0" route="218444762" type="bus" depart="33230" line="10_218444762"/>
    <vehicle id="218444767.0" route="218444761" type="bus" depart="35810" line="10_218444761"/>
    <vehicle id="218444768.0" route="218444762" type="bus" depart="37910" line="10_218444762"/>
    <vehicle id="218444769.0" route="218444761" type="bus" depart="40670" line="10_218444761"/>
    <vehicle id="218444770.0" route="218444762" type="bus" depart="42770" line="10_218444762"/>
    <vehicle id="218444771.0" route="218444761" type="bus" depart="46070" line="10_218444761"/>
    <vehicle id="218444772.0" route="218444762" type="bus" depart="48230" line="10_218444762"/>
    <vehicle id="218444773.0" route="218444761" type="bus" depart="51470" line="10_218444761"/>
    <vehicle id="218444788.0" route="218444762" type="bus" depart="31430" line="10_218444762"/>
    <vehicle id="218444789.0" route="218444761" type="bus" depart="34130" line="10_218444761"/>
    <vehicle id="218444790.0" route="218444762" type="bus" depart="36290" line="10_218444762"/>
    <vehicle id="218444791.0" route="218444761" type="bus" depart="38870" line="10_218444761"/>
    <vehicle id="218444792.0" route="218444762" type="bus" depart="41090" line="10_218444762"/>
    <vehicle id="218444793.0" route="218444761" type="bus" depart="44270" line="10_218444761"/>
    <vehicle id="218444794.0" route="218444762" type="bus" depart="46370" line="10_218444762"/>
    <vehicle id="218444795.0" route="218444761" type="bus" depart="49610" line="10_218444761"/>
    <vehicle id="218444796.0" route="218444762" type="bus" depart="51890" line="10_218444762"/>
    <vehicle id="218444797.0" route="218444761" type="bus" depart="55010" line="10_218444761"/>
    <vehicle id="218444798.0" route="218444762" type="bus" depart="59090" line="10_218444762"/>
    <vehicle id="218444799.0" route="218444761" type="bus" depart="62330" line="10_218444761"/>
    <vehicle id="218444815.0" route="218444762" type="bus" depart="53690" line="10_218444762"/>
    <vehicle id="218444816.0" route="218444761" type="bus" depart="56990" line="10_218444761"/>
    <vehicle id="218444817.0" route="218444762" type="bus" depart="60890" line="10_218444762"/>
    <vehicle id="218444818.0" route="218444761" type="bus" depart="64070" line="10_218444761"/>
    <vehicle id="218444819.0" route="218444762" type="bus" depart="66890" line="10_218444762"/>
    <vehicle id="218444820.0" route="218444761" type="bus" depart="69350" line="10_218444761"/>
    <vehicle id="218444823.0" route="218444762" type="bus" depart="29570" line="10_218444762"/>
    <vehicle id="218444824.0" route="218444761" type="bus" depart="32270" line="10_218444761"/>
    <vehicle id="218444825.0" route="218444762" type="bus" depart="34730" line="10_218444762"/>
    <vehicle id="218444826.0" route="218444761" type="bus" depart="37070" line="10_218444761"/>
    <vehicle id="218444827.0" route="218444762" type="bus" depart="39230" line="10_218444762"/>
    <vehicle id="218444828.0" route="218444761" type="bus" depart="42470" line="10_218444761"/>
    <vehicle id="218444829.0" route="218444762" type="bus" depart="44570" line="10_218444762"/>
    <vehicle id="218444830.0" route="218444761" type="bus" depart="47870" line="10_218444761"/>
    <vehicle id="218444831.0" route="218444762" type="bus" depart="50090" line="10_218444762"/>
    <vehicle id="218444832.0" route="218444761" type="bus" depart="53330" line="10_218444761"/>
    <vehicle id="218444843.0" route="218444762" type="bus" depart="57290" line="10_218444762"/>
    <vehicle id="218444844.0" route="218444761" type="bus" depart="60410" line="10_218444761"/>
    <vehicle id="218444845.0" route="218444762" type="bus" depart="63890" line="10_218444762"/>
    <vehicle id="218444846.0" route="218444761" type="bus" depart="65810" line="10_218444761"/>
    <vehicle id="218444847.0" route="218444762" type="bus" depart="68690" line="10_218444762"/>
    <vehicle id="218444848.0" route="218444761" type="bus" depart="71270" line="10_218444761"/>
    <vehicle id="218444849.0" route="218444762" type="bus" depart="73490" line="10_218444762"/>
    <vehicle id="218444850.0" route="218444761" type="bus" depart="75170" line="10_218444761"/>
    <vehicle id="218444851.0" route="218444762" type="bus" depart="77150" line="10_218444762"/>
    <vehicle id="218444852.0" route="218444761" type="bus" depart="79010" line="10_218444761"/>
    <vehicle id="218444853.0" route="218444762" type="bus" depart="81050" line="10_218444762"/>
    <vehicle id="218444854.0" route="218444761" type="bus" depart="82790" line="10_218444761"/>
    <vehicle id="218444855.0" route="218444762" type="bus" depart="84830" line="10_218444762"/>
    <vehicle id="218444869.0" route="218444762" type="bus" depart="71690" line="10_218444762"/>
    <vehicle id="218444870.0" route="218444761" type="bus" depart="73250" line="10_218444761"/>
    <vehicle id="218444871.0" route="218444762" type="bus" depart="75290" line="10_218444762"/>
    <vehicle id="218444872.0" route="218444761" type="bus" depart="77150" line="10_218444761"/>
    <vehicle id="218444873.0" route="218444762" type="bus" depart="79070" line="10_218444762"/>
    <vehicle id="218444874.0" route="218444761" type="bus" depart="80870" line="10_218444761"/>
    <vehicle id="218444875.0" route="218444762" type="bus" depart="82970" line="10_218444762"/>
    <vehicle id="218444876.0" route="218444761" type="bus" depart="84650" line="10_218444761"/>
    <vehicle id="218444961.0" route="218444761" type="bus" depart="23270" line="10_218444761"/>
    <vehicle id="218444962.0" route="218444762" type="bus" depart="25670" line="10_218444762"/>
    <vehicle id="218444963.0" route="218444761" type="bus" depart="28910" line="10_218444761"/>
    <vehicle id="218445202.0" route="218444762" type="bus" depart="55490" line="10_218444762"/>
    <vehicle id="218445203.0" route="218444761" type="bus" depart="58550" line="10_218444761"/>
    <vehicle id="218445204.0" route="218444762" type="bus" depart="62690" line="10_218444762"/>
    <vehicle id="218445210.0" route="218444761" type="bus" depart="27050" line="10_218444761"/>
    <vehicle id="218445607.0" route="218444762" type="bus" depart="65090" line="10_218444762"/>
    <vehicle id="218445608.0" route="218444761" type="bus" depart="67490" line="10_218444761"/>
    <vehicle id="218445609.0" route="218444762" type="bus" depart="70490" line="10_218444762"/>
    <vehicle id="218446071.0" route="218444761" type="bus" depart="18530" line="10_218444761"/>
    <vehicle id="218446072.0" route="218444762" type="bus" depart="20450" line="10_218444762"/>
    <vehicle id="218446073.0" route="218444761" type="bus" depart="21770" line="10_218444761"/>
    <vehicle id="218446074.0" route="218444762" type="bus" depart="23810" line="10_218444762"/>
    <vehicle id="218375988.0" route="218375988" type="bus" depart="50090" line="100_218375988"/>
    <vehicle id="218375989.0" route="218375989" type="bus" depart="53030" line="100_218375989"/>
    <vehicle id="218376099.0" route="218375989" type="bus" depart="18350" line="100_218375989"/>
    <vehicle id="218376101.0" route="218375988" type="bus" depart="20630" line="100_218375988"/>
    <vehicle id="218376113.0" route="218375988" type="bus" depart="35870" line="100_218375988"/>
    <vehicle id="218376114.0" route="218375989" type="bus" depart="38210" line="100_218375989"/>
    <vehicle id="218376116.0" route="218375988" type="bus" depart="40190" line="100_218375988"/>
    <vehicle id="218376117.0" route="218375989" type="bus" depart="43670" line="100_218375989"/>
    <vehicle id="218376119.0" route="218375988" type="bus" depart="45950" line="100_218375988"/>
    <vehicle id="218376120.0" route="218375989" type="bus" depart="49010" line="100_218375989"/>
    <vehicle id="218376122.0" route="218375988" type="bus" depart="51410" line="100_218375988"/>
    <vehicle id="218376123.0" route="218375989" type="bus" depart="54650" line="100_218375989"/>
    <vehicle id="218376126.0" route="218375988" type="bus" depart="20090" line="100_218375988"/>
    <vehicle id="218376127.0" route="218375989" type="bus" depart="22310" line="100_218375989"/>
    <vehicle id="218376129.0" route="218375988" type="bus" depart="24350" line="100_218375988"/>
    <vehicle id="218376130.0" route="218375989" type="bus" depart="27710" line="100_218375989"/>
    <vehicle id="218376132.0" route="218375988" type="bus" depart="30470" line="100_218375988"/>
    <vehicle id="218376135.0" route="218375988" type="bus" depart="23090" line="100_218375988"/>
    <vehicle id="218376136.0" route="218375989" type="bus" depart="26030" line="100_218375989"/>
    <vehicle id="218376138.0" route="218375988" type="bus" depart="28910" line="100_218375988"/>
    <vehicle id="218376141.0" route="218375988" type="bus" depart="19490" line="100_218375988"/>
    <vehicle id="218376148.0" route="218375988" type="bus" depart="33350" line="100_218375988"/>
    <vehicle id="218376149.0" route="218375989" type="bus" depart="36350" line="100_218375989"/>
    <vehicle id="218376151.0" route="218375988" type="bus" depart="38750" line="100_218375988"/>
    <vehicle id="218376152.0" route="218375989" type="bus" depart="41870" line="100_218375989"/>
    <vehicle id="218376154.0" route="218375988" type="bus" depart="44030" line="100_218375988"/>
    <vehicle id="218376155.0" route="218375989" type="bus" depart="47330" line="100_218375989"/>
    <vehicle id="218376157.0" route="218375988" type="bus" depart="49730" line="100_218375988"/>
    <vehicle id="218376158.0" route="218375989" type="bus" depart="52370" line="100_218375989"/>
    <vehicle id="218376160.0" route="218375988" type="bus" depart="56030" line="100_218375988"/>
    <vehicle id="218376167.0" route="218375988" type="bus" depart="25250" line="100_218375988"/>
    <vehicle id="218376169.0" route="218375988" type="bus" depart="29750" line="100_218375988"/>
    <vehicle id="218376170.0" route="218375989" type="bus" depart="32630" line="100_218375989"/>
    <vehicle id="218376172.0" route="218375988" type="bus" depart="34610" line="100_218375988"/>
    <vehicle id="218376178.0" route="218375988" type="bus" depart="44990" line="100_218375988"/>
    <vehicle id="218376180.0" route="218375988" type="bus" depart="48830" line="100_218375988"/>
    <vehicle id="218376181.0" route="218375989" type="bus" depart="51770" line="100_218375989"/>
    <vehicle id="218376183.0" route="218375988" type="bus" depart="54470" line="100_218375988"/>
    <vehicle id="218376184.0" route="218375989" type="bus" depart="58310" line="100_218375989"/>
    <vehicle id="218376186.0" route="218375988" type="bus" depart="61490" line="100_218375988"/>
    <vehicle id="218376187.0" route="218375989" type="bus" depart="65330" line="100_218375989"/>
    <vehicle id="218376190.0" route="218375988" type="bus" depart="26150" line="100_218375988"/>
    <vehicle id="218376191.0" route="218375989" type="bus" depart="29270" line="100_218375989"/>
    <vehicle id="218376193.0" route="218375988" type="bus" depart="31850" line="100_218375988"/>
    <vehicle id="218376194.0" route="218375989" type="bus" depart="34490" line="100_218375989"/>
    <vehicle id="218376196.0" route="218375988" type="bus" depart="37310" line="100_218375988"/>
    <vehicle id="218376197.0" route="218375989" type="bus" depart="40070" line="100_218375989"/>
    <vehicle id="218376199.0" route="218375988" type="bus" depart="42770" line="100_218375988"/>
    <vehicle id="218376200.0" route="218375989" type="bus" depart="45470" line="100_218375989"/>
    <vehicle id="218376202.0" route="218375988" type="bus" depart="47870" line="100_218375988"/>
    <vehicle id="218376203.0" route="218375989" type="bus" depart="50450" line="100_218375989"/>
    <vehicle id="218376205.0" route="218375988" type="bus" depart="53090" line="100_218375988"/>
    <vehicle id="218376206.0" route="218375989" type="bus" depart="56570" line="100_218375989"/>
    <vehicle id="218376208.0" route="218375988" type="bus" depart="59690" line="100_218375988"/>
    <vehicle id="218376217.0" route="218375988" type="bus" depart="32390" line="100_218375988"/>
    <vehicle id="218376220.0" route="218375988" type="bus" depart="28010" line="100_218375988"/>
    <vehicle id="218376221.0" route="218375989" type="bus" depart="30830" line="100_218375989"/>
    <vehicle id="218376223.0" route="218375988" type="bus" depart="32870" line="100_218375988"/>
    <vehicle id="218376226.0" route="218375988" type="bus" depart="31190" line="100_218375988"/>
    <vehicle id="218376229.0" route="218375988" type="bus" depart="50450" line="100_218375988"/>
    <vehicle id="218376230.0" route="218375989" type="bus" depart="53990" line="100_218375989"/>
    <vehicle id="218376235.0" route="218376235" type="bus" depart="54890" line="100_218376235"/>
    <vehicle id="218376237.0" route="218375988" type="bus" depart="57830" line="100_218375988"/>
    <vehicle id="218376238.0" route="218375989" type="bus" depart="61850" line="100_218375989"/>
    <vehicle id="218376240.0" route="218375988" type="bus" depart="64910" line="100_218375988"/>
    <vehicle id="218376241.0" route="218375989" type="bus" depart="68810" line="100_218375989"/>
    <vehicle id="218376246.0" route="218375989" type="bus" depart="60050" line="100_218375989"/>
    <vehicle id="218376248.0" route="218375988" type="bus" depart="63290" line="100_218375988"/>
    <vehicle id="218376249.0" route="218375989" type="bus" depart="67070" line="100_218375989"/>
    <vehicle id="218376251.0" route="218375988" type="bus" depart="70730" line="100_218375988"/>
    <vehicle id="218376252.0" route="218375989" type="bus" depart="74210" line="100_218375989"/>
    <vehicle id="218376254.0" route="218375988" type="bus" depart="76550" line="100_218375988"/>
    <vehicle id="218376255.0" route="218375989" type="bus" depart="79610" line="100_218375989"/>
    <vehicle id="218376257.0" route="218375988" type="bus" depart="81650" line="100_218375988"/>
    <vehicle id="218376258.0" route="218375989" type="bus" depart="84890" line="100_218375989"/>
    <vehicle id="218376265.0" route="218375989" type="bus" depart="63590" line="100_218375989"/>
    <vehicle id="218376267.0" route="218375988" type="bus" depart="66770" line="100_218375988"/>
    <vehicle id="218376268.0" route="218375989" type="bus" depart="70610" line="100_218375989"/>
    <vehicle id="218376270.0" route="218375988" type="bus" depart="72710" line="100_218375988"/>
    <vehicle id="218376271.0" route="218375989" type="bus" depart="76010" line="100_218375989"/>
    <vehicle id="218376273.0" route="218375988" type="bus" depart="78350" line="100_218375988"/>
    <vehicle id="218376274.0" route="218375989" type="bus" depart="81350" line="100_218375989"/>
    <vehicle id="218376276.0" route="218375988" type="bus" depart="83330" line="100_218375988"/>
    <vehicle id="218376509.0" route="218376235" type="bus" depart="83210" line="100_218376235"/>
    <vehicle id="218376711.0" route="218376235" type="bus" depart="83330" line="100_218376235"/>
    <vehicle id="218376713.0" route="218375988" type="bus" depart="85070" line="100_218375988"/>
    <vehicle id="218376720.0" route="218375988" type="bus" depart="46910" line="100_218375988"/>
    <vehicle id="218376803.0" route="218375988" type="bus" depart="18890" line="100_218375988"/>
    <vehicle id="218377102.0" route="218375988" type="bus" depart="22670" line="100_218375988"/>
    <vehicle id="218377164.0" route="218375989" type="bus" depart="20330" line="100_218375989"/>
    <vehicle id="218377166.0" route="218375988" type="bus" depart="22550" line="100_218375988"/>
    <vehicle id="218377266.0" route="218375988" type="bus" depart="51890" line="100_218375988"/>
    <vehicle id="218377267.0" route="218375989" type="bus" depart="55430" line="100_218375989"/>
    <vehicle id="218377449.0" route="218375988" type="bus" depart="41510" line="100_218375988"/>
    <vehicle id="218377517.0" route="218375988" type="bus" depart="21170" line="100_218375988"/>
    <vehicle id="218377518.0" route="218375989" type="bus" depart="24170" line="100_218375989"/>
    <vehicle id="218377520.0" route="218375988" type="bus" depart="27050" line="100_218375988"/>
    <vehicle id="218377553.0" route="218375988" type="bus" depart="22190" line="100_218375988"/>
    <vehicle id="218377560.0" route="218375988" type="bus" depart="23630" line="100_218375988"/>
    <vehicle id="218377623.0" route="218375989" type="bus" depart="85130" line="100_218375989"/>
    <vehicle id="218378318.0" route="218375988" type="bus" depart="21950" line="100_218375988"/>
    <vehicle id="218378742.0" route="218375988" type="bus" depart="75650" line="100_218375988"/>
    <vehicle id="218378743.0" route="218375989" type="bus" depart="78710" line="100_218375989"/>
    <vehicle id="218378771.0" route="218375988" type="bus" depart="68750" line="100_218375988"/>
    <vehicle id="218378772.0" route="218375989" type="bus" depart="72410" line="100_218375989"/>
    <vehicle id="218378774.0" route="218375988" type="bus" depart="74690" line="100_218375988"/>
    <vehicle id="218378775.0" route="218375989" type="bus" depart="77810" line="100_218375989"/>
    <vehicle id="218378777.0" route="218375988" type="bus" depart="79970" line="100_218375988"/>
    <vehicle id="218378778.0" route="218375989" type="bus" depart="83450" line="100_218375989"/>
    <vehicle id="218378781.0" route="218375988" type="bus" depart="49310" line="100_218375988"/>
    <vehicle id="218378833.0" route="218375988" type="bus" depart="18770" line="100_218375988"/>
    <vehicle id="218378908.0" route="218375988" type="bus" depart="21710" line="100_218375988"/>
    <vehicle id="218378921.0" route="218375988" type="bus" depart="50930" line="100_218375988"/>
    <vehicle id="218378939.0" route="218375988" type="bus" depart="79610" line="100_218375988"/>
    <vehicle id="218378940.0" route="218375989" type="bus" depart="83150" line="100_218375989"/>
    <vehicle id="218428883.0" route="218428883" type="bus" depart="21770" line="101_218428883"/>
    <vehicle id="218428884.0" route="218428883" type="bus" depart="25190" line="101_218428883"/>
    <vehicle id="218428885.0" route="218428885" type="bus" depart="22610" line="101_218428885"/>
    <vehicle id="218428886.0" route="218428883" type="bus" depart="23390" line="101_218428883"/>
    <vehicle id="218428887.0" route="218428885" type="bus" depart="24290" line="101_218428885"/>
    <vehicle id="218428888.0" route="218428885" type="bus" depart="26090" line="101_218428885"/>
    <vehicle id="218428889.0" route="218428883" type="bus" depart="26990" line="101_218428883"/>
    <vehicle id="218428890.0" route="218428885" type="bus" depart="27890" line="101_218428885"/>
    <vehicle id="218428891.0" route="218428883" type="bus" depart="28790" line="101_218428883"/>
    <vehicle id="218428892.0" route="218428885" type="bus" depart="29690" line="101_218428885"/>
    <vehicle id="218428893.0" route="218428883" type="bus" depart="30590" line="101_218428883"/>
    <vehicle id="218428894.0" route="218428885" type="bus" depart="31490" line="101_218428885"/>
    <vehicle id="218428895.0" route="218428883" type="bus" depart="32390" line="101_218428883"/>
    <vehicle id="218430923.0" route="218428885" type="bus" depart="53990" line="101_218428885"/>
    <vehicle id="218430924.0" route="218428883" type="bus" depart="54890" line="101_218428883"/>
    <vehicle id="218430925.0" route="218428885" type="bus" depart="55790" line="101_218428885"/>
    <vehicle id="218430926.0" route="218428883" type="bus" depart="56690" line="101_218428883"/>
    <vehicle id="218430927.0" route="218428885" type="bus" depart="57590" line="101_218428885"/>
    <vehicle id="218430928.0" route="218428883" type="bus" depart="58490" line="101_218428883"/>
    <vehicle id="218430929.0" route="218428885" type="bus" depart="59390" line="101_218428885"/>
    <vehicle id="218430930.0" route="218428883" type="bus" depart="60290" line="101_218428883"/>
    <vehicle id="218430931.0" route="218428885" type="bus" depart="61190" line="101_218428885"/>
    <vehicle id="218430932.0" route="218428883" type="bus" depart="62090" line="101_218428883"/>
    <vehicle id="218430933.0" route="218428885" type="bus" depart="62990" line="101_218428885"/>
    <vehicle id="218430934.0" route="218428883" type="bus" depart="63890" line="101_218428883"/>
    <vehicle id="218430935.0" route="218428885" type="bus" depart="64790" line="101_218428885"/>
    <vehicle id="218427419.0" route="218427419" type="bus" depart="85730" line="102_218427419"/>
    <vehicle id="218427421.0" route="218427421" type="bus" depart="81350" line="102_218427421"/>
    <vehicle id="218427422.0" route="218427421" type="bus" depart="84170" line="102_218427421"/>
    <vehicle id="218427423.0" route="218427419" type="bus" depart="79550" line="102_218427419"/>
    <vehicle id="218427424.0" route="218427419" type="bus" depart="82970" line="102_218427419"/>
    <vehicle id="218427833.0" route="218427419" type="bus" depart="65570" line="102_218427419"/>
    <vehicle id="218427834.0" route="218427419" type="bus" depart="69110" line="102_218427419"/>
    <vehicle id="218427841.0" route="218427419" type="bus" depart="72590" line="102_218427419"/>
    <vehicle id="218427842.0" route="218427419" type="bus" depart="76070" line="102_218427419"/>
    <vehicle id="218427845.0" route="218427421" type="bus" depart="74090" line="102_218427421"/>
    <vehicle id="218427846.0" route="218427421" type="bus" depart="77510" line="102_218427421"/>
    <vehicle id="218427847.0" route="218427421" type="bus" depart="67190" line="102_218427421"/>
    <vehicle id="218427848.0" route="218427421" type="bus" depart="70730" line="102_218427421"/>
    <vehicle id="218429068.0" route="218427421" type="bus" depart="19790" line="102_218427421"/>
    <vehicle id="218429070.0" route="218427419" type="bus" depart="21590" line="102_218427419"/>
    <vehicle id="218429071.0" route="218427421" type="bus" depart="23270" line="102_218427421"/>
    <vehicle id="218429073.0" route="218427419" type="bus" depart="25070" line="102_218427419"/>
    <vehicle id="218429074.0" route="218427421" type="bus" depart="26930" line="102_218427421"/>
    <vehicle id="218429076.0" route="218427419" type="bus" depart="28970" line="102_218427419"/>
    <vehicle id="218429077.0" route="218427421" type="bus" depart="30890" line="102_218427421"/>
    <vehicle id="218429079.0" route="218427419" type="bus" depart="32810" line="102_218427419"/>
    <vehicle id="218429080.0" route="218427421" type="bus" depart="34550" line="102_218427421"/>
    <vehicle id="218429082.0" route="218427419" type="bus" depart="36470" line="102_218427419"/>
    <vehicle id="218429083.0" route="218427421" type="bus" depart="38030" line="102_218427421"/>
    <vehicle id="218429085.0" route="218427419" type="bus" depart="40010" line="102_218427419"/>
    <vehicle id="218429086.0" route="218427421" type="bus" depart="41510" line="102_218427421"/>
    <vehicle id="218429088.0" route="218427419" type="bus" depart="43490" line="102_218427419"/>
    <vehicle id="218429089.0" route="218427421" type="bus" depart="44990" line="102_218427421"/>
    <vehicle id="218429091.0" route="218427419" type="bus" depart="47090" line="102_218427419"/>
    <vehicle id="218429092.0" route="218427421" type="bus" depart="48590" line="102_218427421"/>
    <vehicle id="218429094.0" route="218427419" type="bus" depart="54230" line="102_218427419"/>
    <vehicle id="218429095.0" route="218427419" type="bus" depart="50690" line="102_218427419"/>
    <vehicle id="218429096.0" route="218427421" type="bus" depart="52190" line="102_218427421"/>
    <vehicle id="218429098.0" route="218427421" type="bus" depart="55910" line="102_218427421"/>
    <vehicle id="218429100.0" route="218427419" type="bus" depart="57950" line="102_218427419"/>
    <vehicle id="218429101.0" route="218427421" type="bus" depart="59690" line="102_218427421"/>
    <vehicle id="218429103.0" route="218427419" type="bus" depart="61790" line="102_218427419"/>
    <vehicle id="218429104.0" route="218427421" type="bus" depart="63470" line="102_218427421"/>
    <vehicle id="218429110.0" route="218427419" type="bus" depart="23330" line="102_218427419"/>
    <vehicle id="218429111.0" route="218427421" type="bus" depart="25010" line="102_218427421"/>
    <vehicle id="218429114.0" route="218427419" type="bus" depart="26930" line="102_218427419"/>
    <vehicle id="218429115.0" route="218427421" type="bus" depart="28970" line="102_218427421"/>
    <vehicle id="218429129.0" route="218427419" type="bus" depart="34670" line="102_218427419"/>
    <vehicle id="218429130.0" route="218427419" type="bus" depart="30950" line="102_218427419"/>
    <vehicle id="218429131.0" route="218427421" type="bus" depart="32810" line="102_218427421"/>
    <vehicle id="218429133.0" route="218427421" type="bus" depart="36290" line="102_218427421"/>
    <vehicle id="218429135.0" route="218427419" type="bus" depart="38270" line="102_218427419"/>
    <vehicle id="218429136.0" route="218427421" type="bus" depart="39770" line="102_218427421"/>
    <vehicle id="218429138.0" route="218427419" type="bus" depart="41750" line="102_218427419"/>
    <vehicle id="218429139.0" route="218427421" type="bus" depart="43250" line="102_218427421"/>
    <vehicle id="218429141.0" route="218427419" type="bus" depart="45290" line="102_218427419"/>
    <vehicle id="218429142.0" route="218427421" type="bus" depart="46790" line="102_218427421"/>
    <vehicle id="218429144.0" route="218427419" type="bus" depart="48890" line="102_218427419"/>
    <vehicle id="218429145.0" route="218427421" type="bus" depart="50390" line="102_218427421"/>
    <vehicle id="218429147.0" route="218427419" type="bus" depart="52490" line="102_218427419"/>
    <vehicle id="218429148.0" route="218427421" type="bus" depart="53990" line="102_218427421"/>
    <vehicle id="218429150.0" route="218427419" type="bus" depart="56030" line="102_218427419"/>
    <vehicle id="218429151.0" route="218427421" type="bus" depart="57830" line="102_218427421"/>
    <vehicle id="218429153.0" route="218427419" type="bus" depart="59870" line="102_218427419"/>
    <vehicle id="218429154.0" route="218427421" type="bus" depart="61550" line="102_218427421"/>
    <vehicle id="218429156.0" route="218427419" type="bus" depart="63770" line="102_218427419"/>
    <vehicle id="218429157.0" route="218427421" type="bus" depart="65330" line="102_218427421"/>
    <vehicle id="218430309.0" route="218427421" type="bus" depart="21530" line="102_218427421"/>
    <vehicle id="218431155.0" route="218427419" type="bus" depart="67370" line="102_218427419"/>
    <vehicle id="218431156.0" route="218427421" type="bus" depart="68990" line="102_218427421"/>
    <vehicle id="218431158.0" route="218427419" type="bus" depart="70850" line="102_218427419"/>
    <vehicle id="218431159.0" route="218427421" type="bus" depart="72410" line="102_218427421"/>
    <vehicle id="218431161.0" route="218427419" type="bus" depart="74330" line="102_218427419"/>
    <vehicle id="218431162.0" route="218427421" type="bus" depart="75770" line="102_218427421"/>
    <vehicle id="218431164.0" route="218427419" type="bus" depart="77810" line="102_218427419"/>
    <vehicle id="218431166.0" route="218427421" type="bus" depart="79370" line="102_218427421"/>
    <vehicle id="218431168.0" route="218427419" type="bus" depart="81230" line="102_218427419"/>
    <vehicle id="218375979.0" route="218375979" type="bus" depart="64910" line="103_218375979"/>
    <vehicle id="218375980.0" route="218375980" type="bus" depart="67310" line="103_218375980"/>
    <vehicle id="218375982.0" route="218375979" type="bus" depart="68990" line="103_218375979"/>
    <vehicle id="218375983.0" route="218375980" type="bus" depart="70910" line="103_218375980"/>
    <vehicle id="218375985.0" route="218375979" type="bus" depart="73070" line="103_218375979"/>
    <vehicle id="218376215.0" route="218375980" type="bus" depart="28430" line="103_218375980"/>
    <vehicle id="218376279.0" route="218375980" type="bus" depart="19190" line="103_218375980"/>
    <vehicle id="218376281.0" route="218375979" type="bus" depart="20750" line="103_218375979"/>
    <vehicle id="218376282.0" route="218375980" type="bus" depart="22610" line="103_218375980"/>
    <vehicle id="218376284.0" route="218375979" type="bus" depart="24350" line="103_218375979"/>
    <vehicle id="218376285.0" route="218375980" type="bus" depart="26630" line="103_218375980"/>
    <vehicle id="218376287.0" route="218375980" type="bus" depart="29870" line="103_218375980"/>
    <vehicle id="218376298.0" route="218375979" type="bus" depart="47570" line="103_218375979"/>
    <vehicle id="218376299.0" route="218375980" type="bus" depart="49790" line="103_218375980"/>
    <vehicle id="218376301.0" route="218375979" type="bus" depart="51530" line="103_218375979"/>