<?xml version="1.0" encoding="UTF-8"?>

<!-- generated on 05/05/21 12:22:32 by Eclipse SUMO netconvert Version 1.7.0
<configuration xmlns:xsi="http://www.w3.org/2001/XMLSchema-instance" xsi:noNamespaceSchemaLocation="http://sumo.dlr.de/xsd/netconvertConfiguration.xsd">

    <input>
        <osm-files value="Pont_Sud.osm"/>
    </input>

    <output>
        <output-file value="Pont_Sud.net.xml"/>
    </output>

    <projection>
        <proj.utm value="true"/>
    </projection>

    <edge_removal>
        <keep-edges.by-type value="highway.motorway,highway.motorway_link"/>
    </edge_removal>

    <report>
        <aggregate-warnings value="5"/>
        <ignore-errors value="true"/>
    </report>

</configuration>
-->

<net version="1.6" junctionCornerDetail="5" limitTurnSpeed="5.50" xmlns:xsi="http://www.w3.org/2001/XMLSchema-instance" xsi:noNamespaceSchemaLocation="http://sumo.dlr.de/xsd/net_file.xsd">

    <location netOffset="-613395.89,-5035970.83" convBoundary="0.00,0.00,5792.27,13242.39" origBoundary="-73.693271,45.407098,-73.472207,45.590729" projParameter="+proj=utm +zone=18 +ellps=WGS84 +datum=WGS84 +units=m +no_defs"/>

    <type id="highway.bridleway" priority="1" numLanes="1" speed="2.78" allow="pedestrian" oneway="1" width="2.00"/>
    <type id="highway.bus_guideway" priority="1" numLanes="1" speed="27.78" allow="bus" oneway="1"/>
    <type id="highway.cycleway" priority="1" numLanes="1" speed="8.33" allow="bicycle" oneway="0" width="1.00"/>
    <type id="highway.footway" priority="1" numLanes="1" speed="2.78" allow="pedestrian" oneway="1" width="2.00"/>
    <type id="highway.ford" priority="1" numLanes="1" speed="2.78" allow="army" oneway="0"/>
    <type id="highway.living_street" priority="2" numLanes="1" speed="2.78" disallow="tram rail_urban rail rail_electric rail_fast ship" oneway="0"/>
    <type id="highway.motorway" priority="14" numLanes="2" speed="39.44" allow="private emergency authority army vip passenger hov taxi bus coach delivery truck trailer motorcycle evehicle custom1 custom2" oneway="1"/>
    <type id="highway.motorway_link" priority="9" numLanes="1" speed="22.22" allow="private emergency authority army vip passenger hov taxi bus coach delivery truck trailer motorcycle evehicle custom1 custom2" oneway="1"/>
    <type id="highway.path" priority="1" numLanes="1" speed="2.78" allow="pedestrian bicycle" oneway="1" width="2.00"/>
    <type id="highway.pedestrian" priority="1" numLanes="1" speed="2.78" allow="pedestrian" oneway="1" width="2.00"/>
    <type id="highway.primary" priority="12" numLanes="2" speed="27.78" disallow="tram rail_urban rail rail_electric rail_fast ship" oneway="0"/>
    <type id="highway.primary_link" priority="7" numLanes="1" speed="22.22" disallow="tram rail_urban rail rail_electric rail_fast ship" oneway="0"/>
    <type id="highway.raceway" priority="15" numLanes="2" speed="83.33" allow="vip" oneway="0"/>
    <type id="highway.residential" priority="3" numLanes="1" speed="13.89" disallow="tram rail_urban rail rail_electric rail_fast ship" oneway="0"/>
    <type id="highway.secondary" priority="11" numLanes="1" speed="27.78" disallow="tram rail_urban rail rail_electric rail_fast ship" oneway="0"/>
    <type id="highway.secondary_link" priority="6" numLanes="1" speed="22.22" disallow="tram rail_urban rail rail_electric rail_fast ship" oneway="0"/>
    <type id="highway.service" priority="1" numLanes="1" speed="5.56" allow="pedestrian delivery bicycle" oneway="0"/>
    <type id="highway.stairs" priority="1" numLanes="1" speed="1.39" allow="pedestrian" oneway="1" width="2.00"/>
    <type id="highway.step" priority="1" numLanes="1" speed="1.39" allow="pedestrian" oneway="1" width="2.00"/>
    <type id="highway.steps" priority="1" numLanes="1" speed="1.39" allow="pedestrian" oneway="1" width="2.00"/>
    <type id="highway.tertiary" priority="10" numLanes="1" speed="22.22" disallow="tram rail_urban rail rail_electric rail_fast ship" oneway="0"/>
    <type id="highway.tertiary_link" priority="5" numLanes="1" speed="22.22" disallow="tram rail_urban rail rail_electric rail_fast ship" oneway="0"/>
    <type id="highway.track" priority="1" numLanes="1" speed="5.56" allow="pedestrian motorcycle moped bicycle" oneway="0"/>
    <type id="highway.trunk" priority="13" numLanes="2" speed="27.78" disallow="pedestrian bicycle tram rail_urban rail rail_electric rail_fast ship" oneway="0"/>
    <type id="highway.trunk_link" priority="8" numLanes="1" speed="22.22" disallow="pedestrian bicycle tram rail_urban rail rail_electric rail_fast ship" oneway="0"/>
    <type id="highway.unclassified" priority="4" numLanes="1" speed="13.89" disallow="tram rail_urban rail rail_electric rail_fast ship" oneway="0"/>
    <type id="highway.unsurfaced" priority="1" numLanes="1" speed="8.33" disallow="tram rail_urban rail rail_electric rail_fast ship" oneway="0"/>
    <type id="railway.highspeed" priority="21" numLanes="1" speed="69.44" allow="rail_fast" oneway="1"/>
    <type id="railway.light_rail" priority="19" numLanes="1" speed="27.78" allow="rail_urban" oneway="1"/>
    <type id="railway.preserved" priority="16" numLanes="1" speed="27.78" allow="rail" oneway="1"/>
    <type id="railway.rail" priority="20" numLanes="1" speed="44.44" allow="rail" oneway="1"/>
    <type id="railway.subway" priority="18" numLanes="1" speed="27.78" allow="rail_urban" oneway="1"/>
    <type id="railway.tram" priority="17" numLanes="1" speed="13.89" allow="tram" oneway="1"/>

    <edge id=":1090182882_0" function="internal">
        <lane id=":1090182882_0_0" index="0" allow="private emergency authority army vip passenger hov taxi bus coach delivery truck trailer motorcycle evehicle custom1 custom2" speed="16.67" length="21.10" shape="815.27,323.89 811.27,323.59 806.59,323.38 800.99,323.50 794.22,324.16"/>
    </edge>
    <edge id=":1090182882_1" function="internal">
        <lane id=":1090182882_1_0" index="0" allow="private emergency authority army vip passenger hov taxi bus coach delivery truck trailer motorcycle evehicle custom1 custom2" speed="16.67" length="21.28" shape="815.04,319.99 793.79,320.99"/>
    </edge>
    <edge id=":1100950053_0" function="internal">
        <lane id=":1100950053_0_0" index="0" allow="private emergency authority army vip passenger hov taxi bus coach delivery truck trailer motorcycle evehicle custom1 custom2" speed="22.22" length="0.28" shape="566.56,335.10 566.28,335.03"/>
    </edge>
    <edge id=":1100950073_0" function="internal">
        <lane id=":1100950073_0_0" index="0" allow="private emergency authority army vip passenger hov taxi bus coach delivery truck trailer motorcycle evehicle custom1 custom2" speed="19.44" length="14.40" shape="642.72,344.50 628.40,345.97"/>
    </edge>
    <edge id=":1100950073_1" function="internal">
        <lane id=":1100950073_1_0" index="0" allow="private emergency authority army vip passenger hov taxi bus coach delivery truck trailer motorcycle evehicle custom1 custom2" speed="20.83" length="14.35" shape="642.30,341.32 637.77,341.84 634.35,342.07 631.33,342.15 627.99,342.21"/>
    </edge>
    <edge id=":1100950087_0" function="internal">
        <lane id=":1100950087_0_0" index="0" allow="private emergency authority army vip passenger hov taxi bus coach delivery truck trailer motorcycle evehicle custom1 custom2" speed="22.22" length="0.10" shape="612.58,342.07 612.58,342.07"/>
    </edge>
    <edge id=":1100950112_0" function="internal">
        <lane id=":1100950112_0_0" index="0" allow="private emergency authority army vip passenger hov taxi bus coach delivery truck trailer motorcycle evehicle custom1 custom2" speed="22.22" length="0.27" shape="518.54,322.28 518.28,322.22"/>
    </edge>
    <edge id=":1112495184_0" function="internal">
        <lane id=":1112495184_0_0" index="0" allow="private emergency authority army vip passenger hov taxi bus coach delivery truck trailer motorcycle evehicle custom1 custom2" speed="22.22" length="0.29" shape="441.27,182.22 441.20,182.16 441.16,182.13 441.11,182.09 441.04,182.05"/>
    </edge>
    <edge id=":17052707_0" function="internal">
        <lane id=":17052707_0_0" index="0" allow="private emergency authority army vip passenger hov taxi bus coach delivery truck trailer motorcycle evehicle custom1 custom2" speed="19.44" length="0.30" shape="4365.19,12719.14 4364.88,12719.23"/>
        <lane id=":17052707_0_1" index="1" allow="private emergency authority army vip passenger hov taxi bus coach delivery truck trailer motorcycle evehicle custom1 custom2" speed="19.44" length="0.30" shape="4364.30,12716.07 4364.01,12716.15"/>
        <lane id=":17052707_0_2" index="2" allow="private emergency authority army vip passenger hov taxi bus coach delivery truck trailer motorcycle evehicle custom1 custom2" speed="19.44" length="0.30" shape="4363.41,12712.99 4363.15,12713.07"/>
    </edge>
    <edge id=":1820970687_0" function="internal">
        <lane id=":1820970687_0_0" index="0" allow="private emergency authority army vip passenger hov taxi bus coach delivery truck trailer motorcycle evehicle custom1 custom2" speed="19.44" length="0.22" shape="609.03,349.28 608.81,349.31"/>
    </edge>
    <edge id=":1820970701_0" function="internal">
        <lane id=":1820970701_0_0" index="0" allow="private emergency authority army vip passenger hov taxi bus coach delivery truck trailer motorcycle evehicle custom1 custom2" speed="19.44" length="0.23" shape="488.83,507.57 488.91,507.78"/>
    </edge>
    <edge id=":1820970709_0" function="internal">
        <lane id=":1820970709_0_0" index="0" allow="private emergency authority army vip passenger hov taxi bus coach delivery truck trailer motorcycle evehicle custom1 custom2" speed="19.44" length="0.30" shape="504.12,545.53 504.23,545.81"/>
    </edge>
    <edge id=":202502229_0" function="internal">
        <lane id=":202502229_0_0" index="0" allow="private emergency authority army vip passenger hov taxi bus coach delivery truck trailer motorcycle evehicle custom1 custom2" speed="13.89" length="0.25" shape="440.01,161.41 440.39,161.59"/>
        <lane id=":202502229_0_1" index="1" allow="private emergency authority army vip passenger hov taxi bus coach delivery truck trailer motorcycle evehicle custom1 custom2" speed="13.89" length="0.25" shape="438.74,164.35 438.97,164.46"/>
        <lane id=":202502229_0_2" index="2" allow="private emergency authority army vip passenger hov taxi bus coach delivery truck trailer motorcycle evehicle custom1 custom2" speed="13.89" length="0.25" shape="437.47,167.29 437.54,167.32"/>
    </edge>
    <edge id=":215622850_0" function="internal">
        <lane id=":215622850_0_0" index="0" allow="private emergency authority army vip passenger hov taxi bus coach delivery truck trailer motorcycle evehicle custom1 custom2" speed="19.44" length="0.30" shape="2821.52,13154.51 2821.22,13154.59"/>
        <lane id=":215622850_0_1" index="1" allow="private emergency authority army vip passenger hov taxi bus coach delivery truck trailer motorcycle evehicle custom1 custom2" speed="19.44" length="0.30" shape="2820.65,13151.43 2820.36,13151.51"/>
        <lane id=":215622850_0_2" index="2" allow="private emergency authority army vip passenger hov taxi bus coach delivery truck trailer motorcycle evehicle custom1 custom2" speed="19.44" length="0.30" shape="2819.78,13148.35 2819.49,13148.43"/>
    </edge>
    <edge id=":215622900_0" function="internal">
        <lane id=":215622900_0_0" index="0" allow="private emergency authority army vip passenger hov taxi bus coach delivery truck trailer motorcycle evehicle custom1 custom2" speed="19.44" length="0.29" shape="2808.97,13128.47 2809.29,13128.38"/>
        <lane id=":215622900_0_1" index="1" allow="private emergency authority army vip passenger hov taxi bus coach delivery truck trailer motorcycle evehicle custom1 custom2" speed="19.44" length="0.29" shape="2809.88,13131.54 2810.16,13131.46"/>
        <lane id=":215622900_0_2" index="2" allow="private emergency authority army vip passenger hov taxi bus coach delivery truck trailer motorcycle evehicle custom1 custom2" speed="19.44" length="0.29" shape="2810.79,13134.61 2811.03,13134.54"/>
    </edge>
    <edge id=":246648831_0" function="internal">
        <lane id=":246648831_0_0" index="0" allow="private emergency authority army vip passenger hov taxi bus coach delivery truck trailer motorcycle evehicle custom1 custom2" speed="19.44" length="0.30" shape="4357.42,12692.29 4357.70,12692.21"/>
        <lane id=":246648831_0_1" index="1" allow="private emergency authority army vip passenger hov taxi bus coach delivery truck trailer motorcycle evehicle custom1 custom2" speed="19.44" length="0.30" shape="4358.29,12695.37 4358.57,12695.29"/>
        <lane id=":246648831_0_2" index="2" allow="private emergency authority army vip passenger hov taxi bus coach delivery truck trailer motorcycle evehicle custom1 custom2" speed="19.44" length="0.30" shape="4359.15,12698.45 4359.45,12698.37"/>
    </edge>
    <edge id=":248412820_0" function="internal">
        <lane id=":248412820_0_0" index="0" allow="private emergency authority army vip passenger hov taxi bus coach delivery truck trailer motorcycle evehicle custom1 custom2" speed="16.67" length="0.30" shape="354.31,781.07 354.53,781.26"/>
        <lane id=":248412820_0_1" index="1" allow="private emergency authority army vip passenger hov taxi bus coach delivery truck trailer motorcycle evehicle custom1 custom2" speed="16.67" length="0.30" shape="352.19,783.45 352.41,783.66"/>
    </edge>
    <edge id=":248413030_0" function="internal">
        <lane id=":248413030_0_0" index="0" allow="private emergency authority army vip passenger hov taxi bus coach delivery truck trailer motorcycle evehicle custom1 custom2" speed="19.44" length="0.30" shape="682.48,1078.89 682.67,1079.11"/>
        <lane id=":248413030_0_1" index="1" allow="private emergency authority army vip passenger hov taxi bus coach delivery truck trailer motorcycle evehicle custom1 custom2" speed="19.44" length="0.30" shape="680.10,1081.04 680.30,1081.26"/>
    </edge>
    <edge id=":248413829_0" function="internal">
        <lane id=":248413829_0_0" index="0" allow="private emergency authority army vip passenger hov taxi bus coach delivery truck trailer motorcycle evehicle custom1 custom2" speed="19.44" length="8.79" shape="785.59,1461.24 785.51,1458.73 786.23,1456.98 786.94,1455.23 786.84,1452.73"/>
    </edge>
    <edge id=":248413829_1" function="internal">
        <lane id=":248413829_1_0" index="0" allow="private emergency authority army vip passenger hov taxi bus coach delivery truck trailer motorcycle evehicle custom1 custom2" speed="19.44" length="8.19" shape="788.70,1460.51 787.92,1458.24 787.03,1456.80 786.16,1455.36 785.44,1453.07"/>
        <lane id=":248413829_1_1" index="1" allow="private emergency authority army vip passenger hov taxi bus coach delivery truck trailer motorcycle evehicle custom1 custom2" speed="19.44" length="8.19" shape="791.82,1459.78 791.03,1457.50 790.14,1456.06 789.27,1454.61 788.55,1452.31"/>
    </edge>
    <edge id=":248413879_0" function="internal">
        <lane id=":248413879_0_0" index="0" allow="private emergency authority army vip passenger hov taxi bus coach delivery truck trailer motorcycle evehicle custom1 custom2" speed="19.44" length="8.17" shape="505.22,951.35 503.33,949.88 501.79,949.20 500.23,948.53 498.28,947.14"/>
    </edge>
    <edge id=":248413879_1" function="internal">
        <lane id=":248413879_1_0" index="0" allow="private emergency authority army vip passenger hov taxi bus coach delivery truck trailer motorcycle evehicle custom1 custom2" speed="19.44" length="7.99" shape="504.25,952.43 498.28,947.14"/>
        <lane id=":248413879_1_1" index="1" allow="private emergency authority army vip passenger hov taxi bus coach delivery truck trailer motorcycle evehicle custom1 custom2" speed="19.44" length="7.99" shape="506.38,950.04 500.39,944.74"/>
    </edge>
    <edge id=":248415079_0" function="internal">
        <lane id=":248415079_0_0" index="0" allow="private emergency authority army vip passenger hov taxi bus coach delivery truck trailer motorcycle evehicle custom1 custom2" speed="22.22" length="24.39" shape="639.25,2247.52 644.24,2245.99 650.89,2243.87 657.50,2241.64 662.36,2239.75"/>
    </edge>
    <edge id=":248415079_1" function="internal">
        <lane id=":248415079_1_0" index="0" allow="private emergency authority army vip passenger hov taxi bus coach delivery truck trailer motorcycle evehicle custom1 custom2" speed="22.22" length="24.35" shape="640.57,2250.63 662.36,2239.75"/>
    </edge>
    <edge id=":248495000_0" function="internal">
        <lane id=":248495000_0_0" index="0" allow="private emergency authority army vip passenger hov taxi bus coach delivery truck trailer motorcycle evehicle custom1 custom2" speed="13.89" length="0.29" shape="334.12,284.12 333.93,283.79"/>
        <lane id=":248495000_0_1" index="1" allow="private emergency authority army vip passenger hov taxi bus coach delivery truck trailer motorcycle evehicle custom1 custom2" speed="13.89" length="0.29" shape="336.88,282.51 336.74,282.26"/>
        <lane id=":248495000_0_2" index="2" allow="private emergency authority army vip passenger hov taxi bus coach delivery truck trailer motorcycle evehicle custom1 custom2" speed="13.89" length="0.29" shape="339.65,280.90 339.55,280.72"/>
    </edge>
    <edge id=":262200758_0" function="internal">
        <lane id=":262200758_0_0" index="0" allow="private emergency authority army vip passenger hov taxi bus coach delivery truck trailer motorcycle evehicle custom1 custom2" speed="13.89" length="38.45" shape="542.54,676.51 538.18,668.06 532.31,658.08 526.66,649.05 522.96,643.45"/>
    </edge>
    <edge id=":262200758_1" function="internal">
        <lane id=":262200758_1_0" index="0" allow="private emergency authority army vip passenger hov taxi bus coach delivery truck trailer motorcycle evehicle custom1 custom2" speed="13.89" length="38.43" shape="542.54,676.51 526.45,641.62"/>
        <lane id=":262200758_1_1" index="1" allow="private emergency authority army vip passenger hov taxi bus coach delivery truck trailer motorcycle evehicle custom1 custom2" speed="13.89" length="38.43" shape="545.46,675.21 529.36,640.29"/>
    </edge>
    <edge id=":280160922_0" function="internal">
        <lane id=":280160922_0_0" index="0" allow="private emergency authority army vip passenger hov taxi bus coach delivery truck trailer motorcycle evehicle custom1 custom2" speed="20.83" length="8.15" shape="4747.69,12608.90 4745.36,12609.06 4743.67,12608.45 4742.01,12607.93 4739.77,12608.35"/>
    </edge>
    <edge id=":280160922_1" function="internal">
        <lane id=":280160922_1_0" index="0" allow="private emergency authority army vip passenger hov taxi bus coach delivery truck trailer motorcycle evehicle custom1 custom2" speed="19.44" length="7.51" shape="4747.69,12608.90 4740.85,12610.87"/>
        <lane id=":280160922_1_1" index="1" allow="private emergency authority army vip passenger hov taxi bus coach delivery truck trailer motorcycle evehicle custom1 custom2" speed="19.44" length="7.51" shape="4746.80,12605.83 4739.58,12607.91"/>
        <lane id=":280160922_1_2" index="2" allow="private emergency authority army vip passenger hov taxi bus coach delivery truck trailer motorcycle evehicle custom1 custom2" speed="19.44" length="7.51" shape="4745.92,12602.75 4738.32,12604.94"/>
    </edge>
    <edge id=":280160936_0" function="internal">
        <lane id=":280160936_0_0" index="0" allow="private emergency authority army vip passenger hov taxi bus coach delivery truck trailer motorcycle evehicle custom1 custom2" speed="4.31" length="5.83" shape="4810.21,12489.90 4810.00,12491.84 4809.44,12492.63 4808.53,12492.28 4807.29,12490.78"/>
    </edge>
    <edge id=":280160940_0" function="internal">
        <lane id=":280160940_0_0" index="0" allow="private emergency authority army vip passenger hov taxi bus coach delivery truck trailer motorcycle evehicle custom1 custom2" speed="22.22" length="12.01" shape="4730.85,12434.75 4727.58,12434.26 4724.86,12433.80 4722.16,12433.62 4718.94,12434.00"/>
    </edge>
    <edge id=":280160940_1" function="internal">
        <lane id=":280160940_1_0" index="0" allow="private emergency authority army vip passenger hov taxi bus coach delivery truck trailer motorcycle evehicle custom1 custom2" speed="22.22" length="12.00" shape="4730.57,12431.07 4718.94,12434.00"/>
    </edge>
    <edge id=":280160944_0" function="internal">
        <lane id=":280160944_0_0" index="0" allow="private emergency authority army vip passenger hov taxi bus coach delivery truck trailer motorcycle evehicle custom1 custom2" speed="22.22" length="0.49" shape="4626.86,12524.03 4626.85,12524.18 4626.86,12524.28 4626.88,12524.38 4626.91,12524.52"/>
    </edge>
    <edge id=":280160948_0" function="internal">
        <lane id=":280160948_0_0" index="0" allow="private emergency authority army vip passenger hov taxi bus coach delivery truck trailer motorcycle evehicle custom1 custom2" speed="20.83" length="26.96" shape="4725.66,12583.60 4730.10,12583.34 4736.00,12583.00 4743.39,12582.07 4752.32,12580.03"/>
    </edge>
    <edge id=":280160948_1" function="internal">
        <lane id=":280160948_1_0" index="0" allow="private emergency authority army vip passenger hov taxi bus coach delivery truck trailer motorcycle evehicle custom1 custom2" speed="19.44" length="26.94" shape="4726.40,12587.40 4752.32,12580.03"/>
        <lane id=":280160948_1_1" index="1" allow="private emergency authority army vip passenger hov taxi bus coach delivery truck trailer motorcycle evehicle custom1 custom2" speed="19.44" length="26.94" shape="4727.27,12590.48 4753.19,12583.11"/>
        <lane id=":280160948_1_2" index="2" allow="private emergency authority army vip passenger hov taxi bus coach delivery truck trailer motorcycle evehicle custom1 custom2" speed="19.44" length="26.94" shape="4728.15,12593.55 4754.07,12586.19"/>
    </edge>
    <edge id=":280160960_0" function="internal">
        <lane id=":280160960_0_0" index="0" allow="private emergency authority army vip passenger hov taxi bus coach delivery truck trailer motorcycle evehicle custom1 custom2" speed="20.83" length="22.75" shape="4963.40,12550.46 4959.31,12550.51 4954.36,12550.72 4948.31,12551.49 4940.90,12553.22"/>
    </edge>
    <edge id=":280160960_1" function="internal">
        <lane id=":280160960_1_0" index="0" allow="private emergency authority army vip passenger hov taxi bus coach delivery truck trailer motorcycle evehicle custom1 custom2" speed="19.44" length="22.64" shape="4962.51,12546.28 4940.90,12553.22"/>
        <lane id=":280160960_1_1" index="1" allow="private emergency authority army vip passenger hov taxi bus coach delivery truck trailer motorcycle evehicle custom1 custom2" speed="19.44" length="22.64" shape="4961.57,12543.22 4940.02,12550.15"/>
        <lane id=":280160960_1_2" index="2" allow="private emergency authority army vip passenger hov taxi bus coach delivery truck trailer motorcycle evehicle custom1 custom2" speed="19.44" length="22.64" shape="4960.64,12540.16 4939.13,12547.08"/>
    </edge>
    <edge id=":280160985_0" function="internal">
        <lane id=":280160985_0_0" index="0" allow="private emergency authority army vip passenger hov taxi bus coach delivery truck trailer motorcycle evehicle custom1 custom2" speed="20.83" length="30.22" shape="4923.10,12531.49 4932.77,12528.00 4940.33,12524.13 4946.00,12520.58 4950.04,12518.06"/>
    </edge>
    <edge id=":280160985_1" function="internal">
        <lane id=":280160985_1_0" index="0" allow="private emergency authority army vip passenger hov taxi bus coach delivery truck trailer motorcycle evehicle custom1 custom2" speed="19.44" length="30.05" shape="4923.10,12531.49 4951.55,12521.82"/>
        <lane id=":280160985_1_1" index="1" allow="private emergency authority army vip passenger hov taxi bus coach delivery truck trailer motorcycle evehicle custom1 custom2" speed="19.44" length="30.05" shape="4923.97,12534.57 4952.42,12524.90"/>
        <lane id=":280160985_1_2" index="2" allow="private emergency authority army vip passenger hov taxi bus coach delivery truck trailer motorcycle evehicle custom1 custom2" speed="19.44" length="30.05" shape="4924.85,12537.65 4953.29,12527.98"/>
        <lane id=":280160985_1_3" index="3" allow="private emergency authority army vip passenger hov taxi bus coach delivery truck trailer motorcycle evehicle custom1 custom2" speed="19.44" length="30.05" shape="4924.85,12537.65 4954.16,12531.06"/>
    </edge>
    <edge id=":280160994_0" function="internal">
        <lane id=":280160994_0_0" index="0" allow="private emergency authority army vip passenger hov taxi bus coach delivery truck trailer motorcycle evehicle custom1 custom2" speed="16.27" length="9.86" shape="4851.32,12399.64 4848.65,12400.64 4847.07,12401.83 4845.69,12403.39 4843.64,12405.51"/>
    </edge>
    <edge id=":280160994_1" function="internal">
        <lane id=":280160994_1_0" index="0" allow="private emergency authority army vip passenger hov taxi bus coach delivery truck trailer motorcycle evehicle custom1 custom2" speed="22.22" length="9.83" shape="4851.32,12399.64 4841.81,12402.14"/>
    </edge>
    <edge id=":298289378_0" function="internal">
        <lane id=":298289378_0_0" index="0" allow="private emergency authority army vip passenger hov taxi bus coach delivery truck trailer motorcycle evehicle custom1 custom2" speed="25.00" length="48.03" shape="2420.84,3870.95 2424.18,3864.21 2429.81,3852.73 2435.86,3839.41 2440.46,3827.15"/>
    </edge>
    <edge id=":298289378_1" function="internal">
        <lane id=":298289378_1_0" index="0" allow="private emergency authority army vip passenger hov taxi bus coach delivery truck trailer motorcycle evehicle custom1 custom2" speed="27.78" length="47.96" shape="2423.99,3872.16 2428.36,3861.29 2432.74,3849.84 2436.86,3838.29 2440.46,3827.15"/>
        <lane id=":298289378_1_1" index="1" allow="private emergency authority army vip passenger hov taxi bus coach delivery truck trailer motorcycle evehicle custom1 custom2" speed="27.78" length="47.96" shape="2427.06,3873.10 2431.43,3862.23 2435.80,3850.77 2439.93,3839.22 2443.52,3828.07"/>
        <lane id=":298289378_1_2" index="2" allow="private emergency authority army vip passenger hov taxi bus coach delivery truck trailer motorcycle evehicle custom1 custom2" speed="27.78" length="47.96" shape="2430.13,3874.04 2434.50,3863.17 2438.87,3851.70 2442.99,3840.14 2446.59,3829.00"/>
    </edge>
    <edge id=":300082323_0" function="internal">
        <lane id=":300082323_0_0" index="0" allow="private emergency authority army vip passenger hov taxi bus coach delivery truck trailer motorcycle evehicle custom1 custom2" speed="22.22" length="0.10" shape="2753.92,2784.48 2753.92,2784.48"/>
    </edge>
    <edge id=":31141644_0" function="internal">
        <lane id=":31141644_0_0" index="0" allow="private emergency authority army vip passenger hov taxi bus coach delivery truck trailer motorcycle evehicle custom1 custom2" speed="25.00" length="9.67" shape="2432.09,3907.19 2431.12,3909.89 2430.52,3911.76 2430.02,3913.66 2429.35,3916.45"/>
    </edge>
    <edge id=":31141644_1" function="internal">
        <lane id=":31141644_1_0" index="0" allow="private emergency authority army vip passenger hov taxi bus coach delivery truck trailer motorcycle evehicle custom1 custom2" speed="27.78" length="10.07" shape="2432.09,3907.19 2430.63,3909.80 2429.00,3911.20 2427.27,3912.57 2425.54,3915.06"/>
        <lane id=":31141644_1_1" index="1" allow="private emergency authority army vip passenger hov taxi bus coach delivery truck trailer motorcycle evehicle custom1 custom2" speed="27.78" length="10.07" shape="2429.09,3906.08 2427.67,3908.60 2426.05,3909.94 2424.35,3911.24 2422.67,3913.65"/>
        <lane id=":31141644_1_2" index="2" allow="private emergency authority army vip passenger hov taxi bus coach delivery truck trailer motorcycle evehicle custom1 custom2" speed="27.78" length="10.07" shape="2426.09,3904.97 2424.70,3907.40 2423.11,3908.67 2421.44,3909.91 2419.80,3912.23"/>
    </edge>
    <edge id=":31141689_0" function="internal">
        <lane id=":31141689_0_0" index="0" allow="private emergency authority army vip passenger hov taxi bus coach delivery truck trailer motorcycle evehicle custom1 custom2" speed="25.00" length="40.13" shape="3207.05,1706.16 3204.71,1719.95 3203.46,1731.56 3202.87,1740.43 3202.51,1745.99"/>
    </edge>
    <edge id=":31141689_1" function="internal">
        <lane id=":31141689_1_0" index="0" allow="private emergency authority army vip passenger hov taxi bus coach delivery truck trailer motorcycle evehicle custom1 custom2" speed="27.78" length="40.34" shape="3203.91,1705.51 3199.03,1745.49"/>
        <lane id=":31141689_1_1" index="1" allow="private emergency authority army vip passenger hov taxi bus coach delivery truck trailer motorcycle evehicle custom1 custom2" speed="27.78" length="40.34" shape="3200.78,1704.87 3195.89,1744.91"/>
        <lane id=":31141689_1_2" index="2" allow="private emergency authority army vip passenger hov taxi bus coach delivery truck trailer motorcycle evehicle custom1 custom2" speed="27.78" length="40.34" shape="3197.65,1704.22 3192.74,1744.33"/>
    </edge>
    <edge id=":31147243_0" function="internal">
        <lane id=":31147243_0_0" index="0" allow="private emergency authority army vip passenger hov taxi bus coach delivery truck trailer motorcycle evehicle custom1 custom2" speed="25.00" length="35.53" shape="3402.31,1330.01 3397.96,1332.89 3391.40,1337.26 3383.41,1343.57 3374.79,1352.27"/>
    </edge>
    <edge id=":31147243_1" function="internal">