<?xml version="1.0" encoding="UTF-8"?>

<!-- generated on 05/05/21 12:22:08 by Eclipse SUMO netconvert Version 1.7.0
<configuration xmlns:xsi="http://www.w3.org/2001/XMLSchema-instance" xsi:noNamespaceSchemaLocation="http://sumo.dlr.de/xsd/netconvertConfiguration.xsd">

    <input>
        <osm-files value="Pont_Ouest.osm"/>
    </input>

    <output>
        <output-file value="Pont_Ouest.net.xml"/>
    </output>

    <projection>
        <proj.utm value="true"/>
    </projection>

    <edge_removal>
        <keep-edges.by-type value="highway.motorway,highway.motorway_link"/>
    </edge_removal>

    <report>
        <aggregate-warnings value="5"/>
        <ignore-errors value="true"/>
    </report>

</configuration>
-->

<net version="1.6" junctionCornerDetail="5" limitTurnSpeed="5.50" xmlns:xsi="http://www.w3.org/2001/XMLSchema-instance" xsi:noNamespaceSchemaLocation="http://sumo.dlr.de/xsd/net_file.xsd">

    <location netOffset="-574107.33,-5027815.93" convBoundary="0.00,0.00,10238.14,2887.66" origBoundary="-74.063789,45.384191,-73.912056,45.442167" projParameter="+proj=utm +zone=18 +ellps=WGS84 +datum=WGS84 +units=m +no_defs"/>

    <type id="highway.bridleway" priority="1" numLanes="1" speed="2.78" allow="pedestrian" oneway="1" width="2.00"/>
    <type id="highway.bus_guideway" priority="1" numLanes="1" speed="27.78" allow="bus" oneway="1"/>
    <type id="highway.cycleway" priority="1" numLanes="1" speed="8.33" allow="bicycle" oneway="0" width="1.00"/>
    <type id="highway.footway" priority="1" numLanes="1" speed="2.78" allow="pedestrian" oneway="1" width="2.00"/>
    <type id="highway.ford" priority="1" numLanes="1" speed="2.78" allow="army" oneway="0"/>
    <type id="highway.living_street" priority="2" numLanes="1" speed="2.78" disallow="tram rail_urban rail rail_electric rail_fast ship" oneway="0"/>
    <type id="highway.motorway" priority="14" numLanes="2" speed="39.44" allow="private emergency authority army vip passenger hov taxi bus coach delivery truck trailer motorcycle evehicle custom1 custom2" oneway="1"/>
    <type id="highway.motorway_link" priority="9" numLanes="1" speed="22.22" allow="private emergency authority army vip passenger hov taxi bus coach delivery truck trailer motorcycle evehicle custom1 custom2" oneway="1"/>
    <type id="highway.path" priority="1" numLanes="1" speed="2.78" allow="pedestrian bicycle" oneway="1" width="2.00"/>
    <type id="highway.pedestrian" priority="1" numLanes="1" speed="2.78" allow="pedestrian" oneway="1" width="2.00"/>
    <type id="highway.primary" priority="12" numLanes="2" speed="27.78" disallow="tram rail_urban rail rail_electric rail_fast ship" oneway="0"/>
    <type id="highway.primary_link" priority="7" numLanes="1" speed="22.22" disallow="tram rail_urban rail rail_electric rail_fast ship" oneway="0"/>
    <type id="highway.raceway" priority="15" numLanes="2" speed="83.33" allow="vip" oneway="0"/>
    <type id="highway.residential" priority="3" numLanes="1" speed="13.89" disallow="tram rail_urban rail rail_electric rail_fast ship" oneway="0"/>
    <type id="highway.secondary" priority="11" numLanes="1" speed="27.78" disallow="tram rail_urban rail rail_electric rail_fast ship" oneway="0"/>
    <type id="highway.secondary_link" priority="6" numLanes="1" speed="22.22" disallow="tram rail_urban rail rail_electric rail_fast ship" oneway="0"/>
    <type id="highway.service" priority="1" numLanes="1" speed="5.56" allow="pedestrian delivery bicycle" oneway="0"/>
    <type id="highway.stairs" priority="1" numLanes="1" speed="1.39" allow="pedestrian" oneway="1" width="2.00"/>
    <type id="highway.step" priority="1" numLanes="1" speed="1.39" allow="pedestrian" oneway="1" width="2.00"/>
    <type id="highway.steps" priority="1" numLanes="1" speed="1.39" allow="pedestrian" oneway="1" width="2.00"/>
    <type id="highway.tertiary" priority="10" numLanes="1" speed="22.22" disallow="tram rail_urban rail rail_electric rail_fast ship" oneway="0"/>
    <type id="highway.tertiary_link" priority="5" numLanes="1" speed="22.22" disallow="tram rail_urban rail rail_electric rail_fast ship" oneway="0"/>
    <type id="highway.track" priority="1" numLanes="1" speed="5.56" allow="pedestrian motorcycle moped bicycle" oneway="0"/>
    <type id="highway.trunk" priority="13" numLanes="2" speed="27.78" disallow="pedestrian bicycle tram rail_urban rail rail_electric rail_fast ship" oneway="0"/>
    <type id="highway.trunk_link" priority="8" numLanes="1" speed="22.22" disallow="pedestrian bicycle tram rail_urban rail rail_electric rail_fast ship" oneway="0"/>
    <type id="highway.unclassified" priority="4" numLanes="1" speed="13.89" disallow="tram rail_urban rail rail_electric rail_fast ship" oneway="0"/>
    <type id="highway.unsurfaced" priority="1" numLanes="1" speed="8.33" disallow="tram rail_urban rail rail_electric rail_fast ship" oneway="0"/>
    <type id="railway.highspeed" priority="21" numLanes="1" speed="69.44" allow="rail_fast" oneway="1"/>
    <type id="railway.light_rail" priority="19" numLanes="1" speed="27.78" allow="rail_urban" oneway="1"/>
    <type id="railway.preserved" priority="16" numLanes="1" speed="27.78" allow="rail" oneway="1"/>
    <type id="railway.rail" priority="20" numLanes="1" speed="44.44" allow="rail" oneway="1"/>
    <type id="railway.subway" priority="18" numLanes="1" speed="27.78" allow="rail_urban" oneway="1"/>
    <type id="railway.tram" priority="17" numLanes="1" speed="13.89" allow="tram" oneway="1"/>

    <edge id=":1260362882_0" function="internal">
        <lane id=":1260362882_0_0" index="0" allow="private emergency authority army vip passenger hov taxi bus coach delivery truck trailer motorcycle evehicle custom1 custom2" speed="19.44" length="8.20" shape="7363.31,59.43 7361.83,57.51 7360.52,56.43 7359.21,55.34 7357.76,53.42"/>
        <lane id=":1260362882_0_1" index="1" allow="private emergency authority army vip passenger hov taxi bus coach delivery truck trailer motorcycle evehicle custom1 custom2" speed="19.44" length="8.20" shape="7366.03,57.74 7364.55,55.84 7363.25,54.76 7361.95,53.68 7360.50,51.76"/>
        <lane id=":1260362882_0_2" index="2" allow="private emergency authority army vip passenger hov taxi bus coach delivery truck trailer motorcycle evehicle custom1 custom2" speed="19.44" length="8.20" shape="7366.03,57.74 7364.98,55.58 7364.62,53.94 7364.26,52.29 7363.24,50.11"/>
    </edge>
    <edge id=":1428020955_0" function="internal">
        <lane id=":1428020955_0_0" index="0" allow="private emergency authority army vip passenger hov taxi bus coach delivery truck trailer motorcycle evehicle custom1 custom2" speed="18.06" length="50.67" shape="7425.53,167.80 7421.11,159.61 7412.80,145.90 7404.15,132.40 7398.73,124.84"/>
    </edge>
    <edge id=":1428020955_1" function="internal">
        <lane id=":1428020955_1_0" index="0" allow="private emergency authority army vip passenger hov taxi bus coach delivery truck trailer motorcycle evehicle custom1 custom2" speed="18.75" length="51.23" shape="7425.53,167.80 7421.86,159.92 7415.05,146.51 7407.60,132.39 7401.97,122.33"/>
    </edge>
    <edge id=":1428020955_2" function="internal">
        <lane id=":1428020955_2_0" index="0" allow="private emergency authority army vip passenger hov taxi bus coach delivery truck trailer motorcycle evehicle custom1 custom2" speed="18.75" length="51.19" shape="7429.14,166.00 7422.61,156.52 7413.23,143.60 7404.20,131.60 7398.73,124.84"/>
    </edge>
    <edge id=":1428020955_3" function="internal">
        <lane id=":1428020955_3_0" index="0" allow="private emergency authority army vip passenger hov taxi bus coach delivery truck trailer motorcycle evehicle custom1 custom2" speed="19.44" length="51.39" shape="7429.14,166.00 7401.97,122.33"/>
        <lane id=":1428020955_3_1" index="1" allow="private emergency authority army vip passenger hov taxi bus coach delivery truck trailer motorcycle evehicle custom1 custom2" speed="19.44" length="51.39" shape="7431.84,164.28 7404.71,120.68"/>
    </edge>
    <edge id=":16874187_0" function="internal">
        <lane id=":16874187_0_0" index="0" allow="private emergency authority army vip passenger hov taxi bus coach delivery truck trailer motorcycle evehicle custom1 custom2" speed="27.78" length="8.60" shape="1949.88,1612.80 1952.19,1613.59 1954.01,1613.36 1955.86,1613.08 1958.24,1613.70"/>
    </edge>
    <edge id=":16874187_1" function="internal">
        <lane id=":16874187_1_0" index="0" allow="private emergency authority army vip passenger hov taxi bus coach delivery truck trailer motorcycle evehicle custom1 custom2" speed="27.78" length="7.90" shape="1951.30,1610.14 1958.24,1613.70"/>
        <lane id=":16874187_1_1" index="1" allow="private emergency authority army vip passenger hov taxi bus coach delivery truck trailer motorcycle evehicle custom1 custom2" speed="27.78" length="7.90" shape="1949.80,1612.97 1956.82,1616.57"/>
        <lane id=":16874187_1_2" index="2" allow="private emergency authority army vip passenger hov taxi bus coach delivery truck trailer motorcycle evehicle custom1 custom2" speed="27.78" length="7.90" shape="1948.29,1615.79 1955.40,1619.44"/>
    </edge>
    <edge id=":16874192_0" function="internal">
        <lane id=":16874192_0_0" index="0" allow="private emergency authority army vip passenger hov taxi bus coach delivery truck trailer motorcycle evehicle custom1 custom2" speed="27.78" length="0.30" shape="3604.15,2033.54 3604.42,2033.60"/>
        <lane id=":16874192_0_1" index="1" allow="private emergency authority army vip passenger hov taxi bus coach delivery truck trailer motorcycle evehicle custom1 custom2" speed="27.78" length="0.30" shape="3603.43,2036.66 3603.72,2036.73"/>
        <lane id=":16874192_0_2" index="2" allow="private emergency authority army vip passenger hov taxi bus coach delivery truck trailer motorcycle evehicle custom1 custom2" speed="27.78" length="0.30" shape="3602.71,2039.78 3603.03,2039.85"/>
    </edge>
    <edge id=":17052835_0" function="internal">
        <lane id=":17052835_0_0" index="0" allow="private emergency authority army vip passenger hov taxi bus coach delivery truck trailer motorcycle evehicle custom1 custom2" speed="27.78" length="8.75" shape="8927.91,2335.19 8925.50,2335.82 8924.07,2337.01 8922.63,2338.24 8920.24,2338.98"/>
    </edge>
    <edge id=":17052835_1" function="internal">
        <lane id=":17052835_1_0" index="0" allow="private emergency authority army vip passenger hov taxi bus coach delivery truck trailer motorcycle evehicle custom1 custom2" speed="27.78" length="8.00" shape="8928.21,2338.18 8920.24,2338.98"/>
        <lane id=":17052835_1_1" index="1" allow="private emergency authority army vip passenger hov taxi bus coach delivery truck trailer motorcycle evehicle custom1 custom2" speed="27.78" length="8.00" shape="8927.89,2335.00 8919.92,2335.79"/>
        <lane id=":17052835_1_2" index="2" allow="private emergency authority army vip passenger hov taxi bus coach delivery truck trailer motorcycle evehicle custom1 custom2" speed="27.78" length="8.00" shape="8927.57,2331.81 8919.61,2332.61"/>
    </edge>
    <edge id=":17052839_0" function="internal">
        <lane id=":17052839_0_0" index="0" allow="private emergency authority army vip passenger hov taxi bus coach delivery truck trailer motorcycle evehicle custom1 custom2" speed="27.78" length="0.30" shape="6662.40,2503.24 6662.08,2503.19"/>
        <lane id=":17052839_0_1" index="1" allow="private emergency authority army vip passenger hov taxi bus coach delivery truck trailer motorcycle evehicle custom1 custom2" speed="27.78" length="0.30" shape="6662.81,2500.06 6662.52,2500.02"/>
        <lane id=":17052839_0_2" index="2" allow="private emergency authority army vip passenger hov taxi bus coach delivery truck trailer motorcycle evehicle custom1 custom2" speed="27.78" length="0.30" shape="6663.23,2496.89 6662.96,2496.85"/>
    </edge>
    <edge id=":17052849_0" function="internal">
        <lane id=":17052849_0_0" index="0" allow="private emergency authority army vip passenger hov taxi bus coach delivery truck trailer motorcycle evehicle custom1 custom2" speed="27.78" length="21.85" shape="1823.34,1594.34 1816.86,1590.99 1811.49,1588.74 1807.03,1587.16 1803.26,1585.82"/>
    </edge>
    <edge id=":17052849_1" function="internal">
        <lane id=":17052849_1_0" index="0" allow="private emergency authority army vip passenger hov taxi bus coach delivery truck trailer motorcycle evehicle custom1 custom2" speed="27.78" length="21.81" shape="1823.34,1594.34 1805.00,1582.34"/>
        <lane id=":17052849_1_1" index="1" allow="private emergency authority army vip passenger hov taxi bus coach delivery truck trailer motorcycle evehicle custom1 custom2" speed="27.78" length="21.81" shape="1824.92,1591.55 1806.67,1579.61"/>
        <lane id=":17052849_1_2" index="2" allow="private emergency authority army vip passenger hov taxi bus coach delivery truck trailer motorcycle evehicle custom1 custom2" speed="27.78" length="21.81" shape="1826.50,1588.77 1808.35,1576.88"/>
    </edge>
    <edge id=":203680349_0" function="internal">
        <lane id=":203680349_0_0" index="0" allow="private emergency authority army vip passenger hov taxi bus coach delivery truck trailer motorcycle evehicle custom1 custom2" speed="19.44" length="0.28" shape="7492.65,231.43 7492.84,231.74"/>
        <lane id=":203680349_0_1" index="1" allow="private emergency authority army vip passenger hov taxi bus coach delivery truck trailer motorcycle evehicle custom1 custom2" speed="19.44" length="0.28" shape="7489.94,233.13 7490.08,233.37"/>
        <lane id=":203680349_0_2" index="2" allow="private emergency authority army vip passenger hov taxi bus coach delivery truck trailer motorcycle evehicle custom1 custom2" speed="19.44" length="0.28" shape="7487.22,234.83 7487.33,235.00"/>
    </edge>
    <edge id=":2061126691_0" function="internal">
        <lane id=":2061126691_0_0" index="0" allow="private emergency authority army vip passenger hov taxi bus coach delivery truck trailer motorcycle evehicle custom1 custom2" speed="27.78" length="0.30" shape="1004.76,1017.95 1004.52,1017.78"/>
        <lane id=":2061126691_0_1" index="1" allow="private emergency authority army vip passenger hov taxi bus coach delivery truck trailer motorcycle evehicle custom1 custom2" speed="27.78" length="0.30" shape="1006.62,1015.35 1006.38,1015.18"/>
        <lane id=":2061126691_0_2" index="2" allow="private emergency authority army vip passenger hov taxi bus coach delivery truck trailer motorcycle evehicle custom1 custom2" speed="27.78" length="0.30" shape="1008.49,1012.75 1008.24,1012.57"/>
    </edge>
    <edge id=":2073464761_0" function="internal">
        <lane id=":2073464761_0_0" index="0" allow="private emergency authority army vip passenger hov taxi bus coach delivery truck trailer motorcycle evehicle custom1 custom2" speed="27.78" length="0.10" shape="6972.97,2553.99 6972.97,2553.99"/>
    </edge>
    <edge id=":2073464764_0" function="internal">
        <lane id=":2073464764_0_0" index="0" allow="private emergency authority army vip passenger hov taxi bus coach delivery truck trailer motorcycle evehicle custom1 custom2" speed="27.78" length="0.30" shape="7092.74,2484.95 7093.04,2484.94"/>
    </edge>
    <edge id=":2073464770_0" function="internal">
        <lane id=":2073464770_0_0" index="0" allow="private emergency authority army vip passenger hov taxi bus coach delivery truck trailer motorcycle evehicle custom1 custom2" speed="27.78" length="0.10" shape="7040.68,2540.46 7040.68,2540.46"/>
    </edge>
    <edge id=":2073464782_0" function="internal">
        <lane id=":2073464782_0_0" index="0" allow="private emergency authority army vip passenger hov taxi bus coach delivery truck trailer motorcycle evehicle custom1 custom2" speed="27.78" length="0.30" shape="7058.08,2485.96 7058.38,2485.95"/>
    </edge>
    <edge id=":2073464816_0" function="internal">
        <lane id=":2073464816_0_0" index="0" allow="private emergency authority army vip passenger hov taxi bus coach delivery truck trailer motorcycle evehicle custom1 custom2" speed="27.78" length="0.28" shape="6964.25,2532.56 6963.91,2532.57"/>
        <lane id=":2073464816_0_1" index="1" allow="private emergency authority army vip passenger hov taxi bus coach delivery truck trailer motorcycle evehicle custom1 custom2" speed="27.78" length="0.28" shape="6964.18,2529.36 6963.90,2529.37"/>
        <lane id=":2073464816_0_2" index="2" allow="private emergency authority army vip passenger hov taxi bus coach delivery truck trailer motorcycle evehicle custom1 custom2" speed="27.78" length="0.28" shape="6964.10,2526.16 6963.89,2526.17"/>
    </edge>
    <edge id=":2073464825_0" function="internal">
        <lane id=":2073464825_0_0" index="0" allow="private emergency authority army vip passenger hov taxi bus coach delivery truck trailer motorcycle evehicle custom1 custom2" speed="13.89" length="0.10" shape="6867.86,2481.77 6867.86,2481.77"/>
    </edge>
    <edge id=":2073474022_0" function="internal">
        <lane id=":2073474022_0_0" index="0" allow="private emergency authority army vip passenger hov taxi bus coach delivery truck trailer motorcycle evehicle custom1 custom2" speed="27.78" length="0.28" shape="6879.91,2507.58 6880.14,2507.59"/>
        <lane id=":2073474022_0_1" index="1" allow="private emergency authority army vip passenger hov taxi bus coach delivery truck trailer motorcycle evehicle custom1 custom2" speed="27.78" length="0.28" shape="6879.78,2510.78 6880.07,2510.78"/>
        <lane id=":2073474022_0_2" index="2" allow="private emergency authority army vip passenger hov taxi bus coach delivery truck trailer motorcycle evehicle custom1 custom2" speed="27.78" length="0.28" shape="6879.66,2513.97 6880.00,2513.98"/>
    </edge>
    <edge id=":2073504909_0" function="internal">
        <lane id=":2073504909_0_0" index="0" allow="private emergency authority army vip passenger hov taxi bus coach delivery truck trailer motorcycle evehicle custom1 custom2" speed="27.78" length="99.75" shape="9067.72,2291.65 9167.33,2286.42"/>
    </edge>
    <edge id=":2073504909_1" function="internal">
        <lane id=":2073504909_1_0" index="0" allow="private emergency authority army vip passenger hov taxi bus coach delivery truck trailer motorcycle evehicle custom1 custom2" speed="27.78" length="99.79" shape="9067.82,2295.06 9167.33,2286.42"/>
        <lane id=":2073504909_1_1" index="1" allow="private emergency authority army vip passenger hov taxi bus coach delivery truck trailer motorcycle evehicle custom1 custom2" speed="27.78" length="99.79" shape="9068.03,2298.25 9167.45,2289.62"/>
        <lane id=":2073504909_1_2" index="2" allow="private emergency authority army vip passenger hov taxi bus coach delivery truck trailer motorcycle evehicle custom1 custom2" speed="27.78" length="99.79" shape="9068.25,2301.45 9167.56,2292.82"/>
    </edge>
    <edge id=":2073505122_0" function="internal">
        <lane id=":2073505122_0_0" index="0" allow="private emergency authority army vip passenger hov taxi bus coach delivery truck trailer motorcycle evehicle custom1 custom2" speed="27.78" length="0.27" shape="8242.42,2429.47 8242.15,2429.49"/>
    </edge>
    <edge id=":2073505135_0" function="internal">
        <lane id=":2073505135_0_0" index="0" allow="private emergency authority army vip passenger hov taxi bus coach delivery truck trailer motorcycle evehicle custom1 custom2" speed="27.78" length="0.30" shape="8013.26,2436.37 8012.96,2436.38"/>
    </edge>
    <edge id=":2073792402_0" function="internal">
        <lane id=":2073792402_0_0" index="0" allow="private emergency authority army vip passenger hov taxi bus coach delivery truck trailer motorcycle evehicle custom1 custom2" speed="20.83" length="49.70" shape="8337.55,1012.38 8383.45,1031.47"/>
    </edge>
    <edge id=":2073792402_1" function="internal">
        <lane id=":2073792402_1_0" index="0" allow="private emergency authority army vip passenger hov taxi bus coach delivery truck trailer motorcycle evehicle custom1 custom2" speed="19.44" length="49.71" shape="8336.32,1015.64 8383.45,1031.47"/>
        <lane id=":2073792402_1_1" index="1" allow="private emergency authority army vip passenger hov taxi bus coach delivery truck trailer motorcycle evehicle custom1 custom2" speed="19.44" length="49.71" shape="8335.29,1018.67 8382.40,1034.49"/>
    </edge>
    <edge id=":2128386079_0" function="internal">
        <lane id=":2128386079_0_0" index="0" allow="private emergency authority army vip passenger hov taxi bus coach delivery truck trailer motorcycle evehicle custom1 custom2" speed="27.78" length="0.30" shape="3660.48,2046.10 3660.74,2046.16"/>
        <lane id=":2128386079_0_1" index="1" allow="private emergency authority army vip passenger hov taxi bus coach delivery truck trailer motorcycle evehicle custom1 custom2" speed="27.78" length="0.30" shape="3659.78,2049.23 3660.07,2049.29"/>
        <lane id=":2128386079_0_2" index="2" allow="private emergency authority army vip passenger hov taxi bus coach delivery truck trailer motorcycle evehicle custom1 custom2" speed="27.78" length="0.30" shape="3659.09,2052.35 3659.40,2052.42"/>
    </edge>
    <edge id=":2128386110_0" function="internal">
        <lane id=":2128386110_0_0" index="0" allow="private emergency authority army vip passenger hov taxi bus coach delivery truck trailer motorcycle evehicle custom1 custom2" speed="27.78" length="0.30" shape="3761.11,2089.42 3760.81,2089.36"/>
        <lane id=":2128386110_0_1" index="1" allow="private emergency authority army vip passenger hov taxi bus coach delivery truck trailer motorcycle evehicle custom1 custom2" speed="27.78" length="0.30" shape="3761.77,2086.29 3761.48,2086.23"/>
        <lane id=":2128386110_0_2" index="2" allow="private emergency authority army vip passenger hov taxi bus coach delivery truck trailer motorcycle evehicle custom1 custom2" speed="27.78" length="0.30" shape="3762.44,2083.16 3762.15,2083.10"/>
    </edge>
    <edge id=":2155511464_0" function="internal">
        <lane id=":2155511464_0_0" index="0" allow="private emergency authority army vip passenger hov taxi bus coach delivery truck trailer motorcycle evehicle custom1 custom2" speed="22.22" length="0.10" shape="8000.57,857.58 8000.57,857.58"/>
    </edge>
    <edge id=":2155511467_0" function="internal">
        <lane id=":2155511467_0_0" index="0" allow="private emergency authority army vip passenger hov taxi bus coach delivery truck trailer motorcycle evehicle custom1 custom2" speed="22.22" length="0.10" shape="7992.52,867.03 7992.52,867.03"/>
    </edge>
    <edge id=":2155511469_0" function="internal">
        <lane id=":2155511469_0_0" index="0" allow="private emergency authority army vip passenger hov taxi bus coach delivery truck trailer motorcycle evehicle custom1 custom2" speed="22.22" length="0.30" shape="7981.23,904.69 7980.97,904.55"/>
    </edge>
    <edge id=":225061849_0" function="internal">
        <lane id=":225061849_0_0" index="0" allow="private emergency authority army vip passenger hov taxi bus coach delivery truck trailer motorcycle evehicle custom1 custom2" speed="27.78" length="0.30" shape="6664.52,2483.91 6664.81,2483.94"/>
        <lane id=":225061849_0_1" index="1" allow="private emergency authority army vip passenger hov taxi bus coach delivery truck trailer motorcycle evehicle custom1 custom2" speed="27.78" length="0.30" shape="6664.10,2487.08 6664.40,2487.12"/>
        <lane id=":225061849_0_2" index="2" allow="private emergency authority army vip passenger hov taxi bus coach delivery truck trailer motorcycle evehicle custom1 custom2" speed="27.78" length="0.30" shape="6663.68,2490.25 6663.99,2490.29"/>
    </edge>
    <edge id=":227670529_0" function="internal">
        <lane id=":227670529_0_0" index="0" allow="private emergency authority army vip passenger hov taxi bus coach delivery truck trailer motorcycle evehicle custom1 custom2" speed="27.78" length="44.73" shape="7220.94,2509.56 7208.46,2511.31 7195.19,2513.78 7183.80,2516.14 7176.95,2517.58"/>
    </edge>
    <edge id=":227670529_1" function="internal">
        <lane id=":227670529_1_0" index="0" allow="private emergency authority army vip passenger hov taxi bus coach delivery truck trailer motorcycle evehicle custom1 custom2" speed="27.78" length="44.73" shape="7220.94,2509.56 7176.44,2514.07"/>
        <lane id=":227670529_1_1" index="1" allow="private emergency authority army vip passenger hov taxi bus coach delivery truck trailer motorcycle evehicle custom1 custom2" speed="27.78" length="44.73" shape="7220.62,2506.38 7176.12,2510.88"/>
        <lane id=":227670529_1_2" index="2" allow="private emergency authority army vip passenger hov taxi bus coach delivery truck trailer motorcycle evehicle custom1 custom2" speed="27.78" length="44.73" shape="7220.31,2503.20 7175.80,2507.70"/>
    </edge>
    <edge id=":227670563_0" function="internal">
        <lane id=":227670563_0_0" index="0" allow="private emergency authority army vip passenger hov taxi bus coach delivery truck trailer motorcycle evehicle custom1 custom2" speed="13.89" length="10.17" shape="6665.42,2552.12 6655.26,2551.61"/>
    </edge>
    <edge id=":227670563_1" function="internal">
        <lane id=":227670563_1_0" index="0" allow="private emergency authority army vip passenger hov taxi bus coach delivery truck trailer motorcycle evehicle custom1 custom2" speed="13.89" length="10.10" shape="6665.48,2548.92 6662.49,2548.82 6660.44,2548.62 6658.41,2548.25 6655.50,2547.62"/>
    </edge>
    <edge id=":227670661_0" function="internal">
        <lane id=":227670661_0_0" index="0" allow="private emergency authority army vip passenger hov taxi bus coach delivery truck trailer motorcycle evehicle custom1 custom2" speed="27.78" length="8.73" shape="7309.19,2474.97 7311.59,2474.35 7313.02,2473.16 7314.46,2471.93 7316.84,2471.19"/>
    </edge>
    <edge id=":227670661_1" function="internal">
        <lane id=":227670661_1_0" index="0" allow="private emergency authority army vip passenger hov taxi bus coach delivery truck trailer motorcycle evehicle custom1 custom2" speed="27.78" length="8.00" shape="7308.89,2471.99 7316.84,2471.19"/>
        <lane id=":227670661_1_1" index="1" allow="private emergency authority army vip passenger hov taxi bus coach delivery truck trailer motorcycle evehicle custom1 custom2" speed="27.78" length="8.00" shape="7309.21,2475.18 7317.17,2474.37"/>
        <lane id=":227670661_1_2" index="2" allow="private emergency authority army vip passenger hov taxi bus coach delivery truck trailer motorcycle evehicle custom1 custom2" speed="27.78" length="8.00" shape="7309.53,2478.36 7317.49,2477.56"/>
    </edge>
    <edge id=":227681855_0" function="internal">
        <lane id=":227681855_0_0" index="0" allow="private emergency authority army vip passenger hov taxi bus coach delivery truck trailer motorcycle evehicle custom1 custom2" speed="27.78" length="8.60" shape="7496.45,2453.18 7498.89,2453.44 7500.52,2454.36 7502.13,2455.24 7504.56,2455.36"/>
    </edge>
    <edge id=":227681855_1" function="internal">
        <lane id=":227681855_1_0" index="0" allow="private emergency authority army vip passenger hov taxi bus coach delivery truck trailer motorcycle evehicle custom1 custom2" speed="27.78" length="7.87" shape="7496.45,2453.18 7504.10,2452.41"/>
        <lane id=":227681855_1_1" index="1" allow="private emergency authority army vip passenger hov taxi bus coach delivery truck trailer motorcycle evehicle custom1 custom2" speed="27.78" length="7.87" shape="7496.76,2456.36 7504.60,2455.58"/>
        <lane id=":227681855_1_2" index="2" allow="private emergency authority army vip passenger hov taxi bus coach delivery truck trailer motorcycle evehicle custom1 custom2" speed="27.78" length="7.87" shape="7497.08,2459.55 7505.09,2458.75"/>
    </edge>
    <edge id=":227681914_0" function="internal">
        <lane id=":227681914_0_0" index="0" allow="private emergency authority army vip passenger hov taxi bus coach delivery truck trailer motorcycle evehicle custom1 custom2" speed="13.89" length="41.57" shape="8518.56,2325.28 8526.45,2325.10 8539.33,2324.57 8552.20,2323.93 8560.09,2323.42"/>
    </edge>
    <edge id=":227681914_1" function="internal">
        <lane id=":227681914_1_0" index="0" allow="private emergency authority army vip passenger hov taxi bus coach delivery truck trailer motorcycle evehicle custom1 custom2" speed="13.89" length="41.53" shape="8518.89,2328.69 8560.09,2323.42"/>
    </edge>
    <edge id=":227709320_0" function="internal">
        <lane id=":227709320_0_0" index="0" allow="private emergency authority army vip passenger hov taxi bus coach delivery truck trailer motorcycle evehicle custom1 custom2" speed="13.89" length="36.26" shape="8847.34,2368.80 8811.14,2370.77"/>
    </edge>
    <edge id=":227709320_1" function="internal">
        <lane id=":227709320_1_0" index="0" allow="private emergency authority army vip passenger hov taxi bus coach delivery truck trailer motorcycle evehicle custom1 custom2" speed="13.89" length="36.26" shape="8847.01,2365.48 8811.14,2370.77"/>
    </edge>
    <edge id=":227709696_0" function="internal">
        <lane id=":227709696_0_0" index="0" allow="private emergency authority army vip passenger hov taxi bus coach delivery truck trailer motorcycle evehicle custom1 custom2" speed="20.83" length="23.94" shape="8410.25,2415.61 8405.10,2415.47 8398.27,2415.28 8391.45,2415.20 8386.32,2415.40"/>
    </edge>
    <edge id=":227709696_1" function="internal">
        <lane id=":227709696_1_0" index="0" allow="private emergency authority army vip passenger hov taxi bus coach delivery truck trailer motorcycle evehicle custom1 custom2" speed="20.83" length="23.94" shape="8410.04,2412.20 8386.32,2415.40"/>
    </edge>
    <edge id=":227709815_0" function="internal">