<?xml version="1.0" encoding="UTF-8"?>

<!-- generated on 05/05/21 12:22:19 by Eclipse SUMO netconvert Version 1.7.0
<configuration xmlns:xsi="http://www.w3.org/2001/XMLSchema-instance" xsi:noNamespaceSchemaLocation="http://sumo.dlr.de/xsd/netconvertConfiguration.xsd">

    <input>
        <osm-files value="Pont_Nord.osm"/>
    </input>

    <output>
        <output-file value="Pont_Nord.net.xml"/>
    </output>

    <projection>
        <proj.utm value="true"/>
    </projection>

    <edge_removal>
        <keep-edges.by-type value="highway.motorway,highway.motorway_link"/>
    </edge_removal>

    <report>
        <aggregate-warnings value="5"/>
        <ignore-errors value="true"/>
    </report>

</configuration>
-->

<net version="1.6" junctionCornerDetail="5" limitTurnSpeed="5.50" xmlns:xsi="http://www.w3.org/2001/XMLSchema-instance" xsi:noNamespaceSchemaLocation="http://sumo.dlr.de/xsd/net_file.xsd">

    <location netOffset="-615796.44,-5061246.55" convBoundary="0.00,0.00,948.75,3266.11" origBoundary="-73.513690,45.695044,-73.498449,45.725434" projParameter="+proj=utm +zone=18 +ellps=WGS84 +datum=WGS84 +units=m +no_defs"/>

    <type id="highway.bridleway" priority="1" numLanes="1" speed="2.78" allow="pedestrian" oneway="1" width="2.00"/>
    <type id="highway.bus_guideway" priority="1" numLanes="1" speed="27.78" allow="bus" oneway="1"/>
    <type id="highway.cycleway" priority="1" numLanes="1" speed="8.33" allow="bicycle" oneway="0" width="1.00"/>
    <type id="highway.footway" priority="1" numLanes="1" speed="2.78" allow="pedestrian" oneway="1" width="2.00"/>
    <type id="highway.ford" priority="1" numLanes="1" speed="2.78" allow="army" oneway="0"/>
    <type id="highway.living_street" priority="2" numLanes="1" speed="2.78" disallow="tram rail_urban rail rail_electric rail_fast ship" oneway="0"/>
    <type id="highway.motorway" priority="14" numLanes="2" speed="39.44" allow="private emergency authority army vip passenger hov taxi bus coach delivery truck trailer motorcycle evehicle custom1 custom2" oneway="1"/>
    <type id="highway.motorway_link" priority="9" numLanes="1" speed="22.22" allow="private emergency authority army vip passenger hov taxi bus coach delivery truck trailer motorcycle evehicle custom1 custom2" oneway="1"/>
    <type id="highway.path" priority="1" numLanes="1" speed="2.78" allow="pedestrian bicycle" oneway="1" width="2.00"/>
    <type id="highway.pedestrian" priority="1" numLanes="1" speed="2.78" allow="pedestrian" oneway="1" width="2.00"/>
    <type id="highway.primary" priority="12" numLanes="2" speed="27.78" disallow="tram rail_urban rail rail_electric rail_fast ship" oneway="0"/>
    <type id="highway.primary_link" priority="7" numLanes="1" speed="22.22" disallow="tram rail_urban rail rail_electric rail_fast ship" oneway="0"/>
    <type id="highway.raceway" priority="15" numLanes="2" speed="83.33" allow="vip" oneway="0"/>
    <type id="highway.residential" priority="3" numLanes="1" speed="13.89" disallow="tram rail_urban rail rail_electric rail_fast ship" oneway="0"/>
    <type id="highway.secondary" priority="11" numLanes="1" speed="27.78" disallow="tram rail_urban rail rail_electric rail_fast ship" oneway="0"/>
    <type id="highway.secondary_link" priority="6" numLanes="1" speed="22.22" disallow="tram rail_urban rail rail_electric rail_fast ship" oneway="0"/>
    <type id="highway.service" priority="1" numLanes="1" speed="5.56" allow="pedestrian delivery bicycle" oneway="0"/>
    <type id="highway.stairs" priority="1" numLanes="1" speed="1.39" allow="pedestrian" oneway="1" width="2.00"/>
    <type id="highway.step" priority="1" numLanes="1" speed="1.39" allow="pedestrian" oneway="1" width="2.00"/>
    <type id="highway.steps" priority="1" numLanes="1" speed="1.39" allow="pedestrian" oneway="1" width="2.00"/>
    <type id="highway.tertiary" priority="10" numLanes="1" speed="22.22" disallow="tram rail_urban rail rail_electric rail_fast ship" oneway="0"/>
    <type id="highway.tertiary_link" priority="5" numLanes="1" speed="22.22" disallow="tram rail_urban rail rail_electric rail_fast ship" oneway="0"/>
    <type id="highway.track" priority="1" numLanes="1" speed="5.56" allow="pedestrian motorcycle moped bicycle" oneway="0"/>
    <type id="highway.trunk" priority="13" numLanes="2" speed="27.78" disallow="pedestrian bicycle tram rail_urban rail rail_electric rail_fast ship" oneway="0"/>
    <type id="highway.trunk_link" priority="8" numLanes="1" speed="22.22" disallow="pedestrian bicycle tram rail_urban rail rail_electric rail_fast ship" oneway="0"/>
    <type id="highway.unclassified" priority="4" numLanes="1" speed="13.89" disallow="tram rail_urban rail rail_electric rail_fast ship" oneway="0"/>
    <type id="highway.unsurfaced" priority="1" numLanes="1" speed="8.33" disallow="tram rail_urban rail rail_electric rail_fast ship" oneway="0"/>
    <type id="railway.highspeed" priority="21" numLanes="1" speed="69.44" allow="rail_fast" oneway="1"/>
    <type id="railway.light_rail" priority="19" numLanes="1" speed="27.78" allow="rail_urban" oneway="1"/>
    <type id="railway.preserved" priority="16" numLanes="1" speed="27.78" allow="rail" oneway="1"/>
    <type id="railway.rail" priority="20" numLanes="1" speed="44.44" allow="rail" oneway="1"/>
    <type id="railway.subway" priority="18" numLanes="1" speed="27.78" allow="rail_urban" oneway="1"/>
    <type id="railway.tram" priority="17" numLanes="1" speed="13.89" allow="tram" oneway="1"/>

    <edge id=":110468272_0" function="internal">
        <lane id=":110468272_0_0" index="0" allow="private emergency authority army vip passenger hov taxi bus coach delivery truck trailer motorcycle evehicle custom1 custom2" speed="25.00" length="44.39" shape="330.80,2307.33 331.05,2314.99 331.55,2327.72 332.58,2341.28 334.39,2351.50"/>
    </edge>
    <edge id=":110468272_1" function="internal">
        <lane id=":110468272_1_0" index="0" allow="private emergency authority army vip passenger hov taxi bus coach delivery truck trailer motorcycle evehicle custom1 custom2" speed="27.78" length="44.60" shape="327.18,2307.74 328.59,2317.40 330.27,2329.75 332.21,2342.03 334.39,2351.50"/>
        <lane id=":110468272_1_1" index="1" allow="private emergency authority army vip passenger hov taxi bus coach delivery truck trailer motorcycle evehicle custom1 custom2" speed="27.78" length="44.60" shape="324.03,2308.28 325.45,2318.01 327.17,2330.51 329.15,2342.95 331.35,2352.48"/>
    </edge>
    <edge id=":110468273_0" function="internal">
        <lane id=":110468273_0_0" index="0" allow="private emergency authority army vip passenger hov taxi bus coach delivery truck trailer motorcycle evehicle custom1 custom2" speed="27.78" length="0.35" shape="313.46,2227.73 313.47,2227.78 313.47,2227.82 313.47,2227.85 313.48,2227.91"/>
        <lane id=":110468273_0_1" index="1" allow="private emergency authority army vip passenger hov taxi bus coach delivery truck trailer motorcycle evehicle custom1 custom2" speed="27.78" length="0.35" shape="310.27,2227.92 310.28,2228.08 310.29,2228.19 310.30,2228.29 310.33,2228.45"/>
    </edge>
    <edge id=":110468278_0" function="internal">
        <lane id=":110468278_0_0" index="0" allow="private emergency authority army vip passenger hov taxi bus coach delivery truck trailer motorcycle evehicle custom1 custom2" speed="27.78" length="0.29" shape="308.54,1618.15 308.55,1618.46"/>
        <lane id=":110468278_0_1" index="1" allow="private emergency authority army vip passenger hov taxi bus coach delivery truck trailer motorcycle evehicle custom1 custom2" speed="27.78" length="0.29" shape="305.34,1618.26 305.35,1618.52"/>
    </edge>
    <edge id=":110468280_0" function="internal">
        <lane id=":110468280_0_0" index="0" allow="private emergency authority army vip passenger hov taxi bus coach delivery truck trailer motorcycle evehicle custom1 custom2" speed="27.78" length="8.20" shape="282.11,1360.83 281.90,1358.45 281.37,1356.86 280.83,1355.26 280.58,1352.88"/>
        <lane id=":110468280_0_1" index="1" allow="private emergency authority army vip passenger hov taxi bus coach delivery truck trailer motorcycle evehicle custom1 custom2" speed="27.78" length="8.20" shape="285.31,1360.89 285.10,1358.49 284.57,1356.89 284.03,1355.28 283.78,1352.88"/>
        <lane id=":110468280_0_2" index="2" allow="private emergency authority army vip passenger hov taxi bus coach delivery truck trailer motorcycle evehicle custom1 custom2" speed="27.78" length="8.20" shape="285.31,1360.89 285.60,1358.49 286.17,1356.89 286.73,1355.28 286.98,1352.88"/>
    </edge>
    <edge id=":110468282_0" function="internal">
        <lane id=":110468282_0_0" index="0" allow="private emergency authority army vip passenger hov taxi bus coach delivery truck trailer motorcycle evehicle custom1 custom2" speed="27.78" length="0.43" shape="279.80,299.46 279.79,299.17"/>
        <lane id=":110468282_0_1" index="1" allow="private emergency authority army vip passenger hov taxi bus coach delivery truck trailer motorcycle evehicle custom1 custom2" speed="27.78" length="0.43" shape="283.00,299.45 282.99,299.03"/>
        <lane id=":110468282_0_2" index="2" allow="private emergency authority army vip passenger hov taxi bus coach delivery truck trailer motorcycle evehicle custom1 custom2" speed="27.78" length="0.43" shape="286.20,299.45 286.18,298.88"/>
    </edge>
    <edge id=":110468924_0" function="internal">
        <lane id=":110468924_0_0" index="0" allow="private emergency authority army vip passenger hov taxi bus coach delivery truck trailer motorcycle evehicle custom1 custom2" speed="27.78" length="0.26" shape="273.16,2236.69 273.12,2236.35"/>
        <lane id=":110468924_0_1" index="1" allow="private emergency authority army vip passenger hov taxi bus coach delivery truck trailer motorcycle evehicle custom1 custom2" speed="27.78" length="0.26" shape="276.33,2236.22 276.30,2236.03"/>
    </edge>
    <edge id=":110468925_0" function="internal">
        <lane id=":110468925_0_0" index="0" allow="private emergency authority army vip passenger hov taxi bus coach delivery truck trailer motorcycle evehicle custom1 custom2" speed="25.00" length="32.36" shape="294.94,2379.01 285.50,2348.05"/>
    </edge>
    <edge id=":110468925_1" function="internal">
        <lane id=":110468925_1_0" index="0" allow="private emergency authority army vip passenger hov taxi bus coach delivery truck trailer motorcycle evehicle custom1 custom2" speed="27.78" length="32.46" shape="294.94,2379.01 292.85,2371.44 291.43,2363.23 290.38,2354.92 289.37,2347.08"/>
    </edge>
    <edge id=":110468925_2" function="internal">
        <lane id=":110468925_2_0" index="0" allow="private emergency authority army vip passenger hov taxi bus coach delivery truck trailer motorcycle evehicle custom1 custom2" speed="27.78" length="31.83" shape="297.96,2377.93 295.89,2370.46 294.52,2362.45 293.52,2354.36 292.53,2346.62"/>
    </edge>
    <edge id=":224939128_0" function="internal">
        <lane id=":224939128_0_0" index="0" allow="private emergency authority army vip passenger hov taxi bus coach delivery truck trailer motorcycle evehicle custom1 custom2" speed="27.78" length="0.27" shape="301.31,299.13 301.32,299.48"/>
        <lane id=":224939128_0_1" index="1" allow="private emergency authority army vip passenger hov taxi bus coach delivery truck trailer motorcycle evehicle custom1 custom2" speed="27.78" length="0.27" shape="298.11,299.21 298.12,299.48"/>
        <lane id=":224939128_0_2" index="2" allow="private emergency authority army vip passenger hov taxi bus coach delivery truck trailer motorcycle evehicle custom1 custom2" speed="27.78" length="0.27" shape="294.92,299.29 294.92,299.48"/>
    </edge>
    <edge id=":224939130_0" function="internal">
        <lane id=":224939130_0_0" index="0" allow="private emergency authority army vip passenger hov taxi bus coach delivery truck trailer motorcycle evehicle custom1 custom2" speed="27.78" length="8.18" shape="298.11,1352.87 298.36,1355.24 298.92,1356.81 299.51,1358.39 299.84,1360.75"/>
        <lane id=":224939130_0_1" index="1" allow="private emergency authority army vip passenger hov taxi bus coach delivery truck trailer motorcycle evehicle custom1 custom2" speed="27.78" length="8.18" shape="294.91,1352.87 295.16,1355.27 295.72,1356.87 296.31,1358.46 296.64,1360.86"/>
    </edge>
    <edge id=":253108232_0" function="internal">
        <lane id=":253108232_0_0" index="0" allow="private emergency authority army vip passenger hov taxi bus coach delivery truck trailer motorcycle evehicle custom1 custom2" speed="25.00" length="51.59" shape="761.17,3094.37 731.64,3052.07"/>
    </edge>
    <edge id=":253108232_1" function="internal">
        <lane id=":253108232_1_0" index="0" allow="private emergency authority army vip passenger hov taxi bus coach delivery truck trailer motorcycle evehicle custom1 custom2" speed="27.78" length="51.59" shape="763.95,3092.31 731.64,3052.07"/>
        <lane id=":253108232_1_1" index="1" allow="private emergency authority army vip passenger hov taxi bus coach delivery truck trailer motorcycle evehicle custom1 custom2" speed="27.78" length="51.59" shape="766.45,3090.32 734.17,3050.11"/>
    </edge>
    <edge id=":3445159148_0" function="internal">
        <lane id=":3445159148_0_0" index="0" allow="private emergency authority army vip passenger hov taxi bus coach delivery truck trailer motorcycle evehicle custom1 custom2" speed="22.22" length="0.30" shape="250.16,333.30 250.16,333.00"/>
    </edge>
    <edge id=":3445159152_0" function="internal">
        <lane id=":3445159152_0_0" index="0" allow="private emergency authority army vip passenger hov taxi bus coach delivery truck trailer motorcycle evehicle custom1 custom2" speed="22.22" length="0.10" shape="326.08,329.00 326.08,329.00"/>
    </edge>
    <edge id=":369531657_0" function="internal">
        <lane id=":369531657_0_0" index="0" allow="private emergency authority army vip passenger hov taxi bus coach delivery truck trailer motorcycle evehicle custom1 custom2" speed="10.94" length="8.00" shape="42.17,2103.21 43.96,2104.80 45.24,2105.96 46.66,2106.69 48.92,2106.98"/>
    </edge>
    <edge id=":369531657_1" function="internal">
        <lane id=":369531657_1_0" index="0" allow="private emergency authority army vip passenger hov taxi bus coach delivery truck trailer motorcycle evehicle custom1 custom2" speed="22.22" length="8.04" shape="40.88,2107.02 48.92,2106.98"/>
    </edge>
    <edge id=":369531666_0" function="internal">
        <lane id=":369531666_0_0" index="0" allow="private emergency authority army vip passenger hov taxi bus coach delivery truck trailer motorcycle evehicle custom1 custom2" speed="27.78" length="27.73" shape="266.03,1915.77 264.96,1888.00"/>
        <lane id=":369531666_0_1" index="1" allow="private emergency authority army vip passenger hov taxi bus coach delivery truck trailer motorcycle evehicle custom1 custom2" speed="27.78" length="27.73" shape="269.23,1915.70 268.16,1888.05"/>
    </edge>
    <edge id=":369531666_2" function="internal">
        <lane id=":369531666_2_0" index="0" allow="private emergency authority army vip passenger hov taxi bus coach delivery truck trailer motorcycle evehicle custom1 custom2" speed="25.00" length="27.75" shape="262.32,1915.61 262.94,1910.60 263.78,1903.69 264.55,1895.83 264.96,1888.00"/>
    </edge>
    <edge id=":369532166_0" function="internal">
        <lane id=":369532166_0_0" index="0" allow="private emergency authority army vip passenger hov taxi bus coach delivery truck trailer motorcycle evehicle custom1 custom2" speed="15.45" length="10.42" shape="68.63,2118.71 65.67,2118.87 63.68,2119.63 61.80,2120.84 59.12,2122.38"/>
    </edge>
    <edge id=":369532166_1" function="internal">
        <lane id=":369532166_1_0" index="0" allow="private emergency authority army vip passenger hov taxi bus coach delivery truck trailer motorcycle evehicle custom1 custom2" speed="22.22" length="10.39" shape="68.63,2118.71 58.24,2118.69"/>
    </edge>
    <edge id=":369590986_0" function="internal">
        <lane id=":369590986_0_0" index="0" allow="private emergency authority army vip passenger hov taxi bus coach delivery truck trailer motorcycle evehicle custom1 custom2" speed="25.00" length="41.70" shape="767.57,3034.50 774.12,3042.08 782.78,3051.35 790.94,3059.83 795.96,3065.03"/>
    </edge>
    <edge id=":369590986_1" function="internal">
        <lane id=":369590986_1_0" index="0" allow="private emergency authority army vip passenger hov taxi bus coach delivery truck trailer motorcycle evehicle custom1 custom2" speed="27.78" length="41.71" shape="767.57,3034.50 793.25,3067.36"/>
        <lane id=":369590986_1_1" index="1" allow="private emergency authority army vip passenger hov taxi bus coach delivery truck trailer motorcycle evehicle custom1 custom2" speed="27.78" length="41.71" shape="765.05,3036.47 790.72,3069.33"/>
    </edge>
    <edge id=":4667725317_0" function="internal">
        <lane id=":4667725317_0_0" index="0" allow="private emergency authority army vip passenger hov taxi bus coach delivery truck trailer motorcycle evehicle custom1 custom2" speed="27.78" length="0.28" shape="267.75,1999.29 267.75,1999.05"/>
        <lane id=":4667725317_0_1" index="1" allow="private emergency authority army vip passenger hov taxi bus coach delivery truck trailer motorcycle evehicle custom1 custom2" speed="27.78" length="0.28" shape="270.95,1999.29 270.95,1998.98"/>
    </edge>
    <edge id=":4667725318_0" function="internal">
        <lane id=":4667725318_0_0" index="0" allow="private emergency authority army vip passenger hov taxi bus coach delivery truck trailer motorcycle evehicle custom1 custom2" speed="27.78" length="0.30" shape="310.67,1998.42 310.67,1998.70"/>
        <lane id=":4667725318_0_1" index="1" allow="private emergency authority army vip passenger hov taxi bus coach delivery truck trailer motorcycle evehicle custom1 custom2" speed="27.78" length="0.30" shape="307.47,1998.38 307.47,1998.69"/>
    </edge>
    <edge id=":573353250_0" function="internal">
        <lane id=":573353250_0_0" index="0" allow="private emergency authority army vip passenger hov taxi bus coach delivery truck trailer motorcycle evehicle custom1 custom2" speed="22.22" length="17.20" shape="502.76,2104.05 506.81,2103.78 511.22,2102.91 515.61,2101.79 519.60,2100.80"/>
    </edge>
    <edge id=":573353250_1" function="internal">
        <lane id=":573353250_1_0" index="0" allow="private emergency authority army vip passenger hov taxi bus coach delivery truck trailer motorcycle evehicle custom1 custom2" speed="22.22" length="17.20" shape="502.76,2104.05 519.96,2104.30"/>
    </edge>
    <edge id=":573353392_0" function="internal">
        <lane id=":573353392_0_0" index="0" allow="private emergency authority army vip passenger hov taxi bus coach delivery truck trailer motorcycle evehicle custom1 custom2" speed="25.00" length="35.55" shape="312.84,1835.00 315.68,1870.43"/>
    </edge>
    <edge id=":573353392_1" function="internal">
        <lane id=":573353392_1_0" index="0" allow="private emergency authority army vip passenger hov taxi bus coach delivery truck trailer motorcycle evehicle custom1 custom2" speed="27.78" length="35.55" shape="312.84,1835.00 312.11,1870.58"/>
        <lane id=":573353392_1_1" index="1" allow="private emergency authority army vip passenger hov taxi bus coach delivery truck trailer motorcycle evehicle custom1 custom2" speed="27.78" length="35.55" shape="309.64,1835.06 308.91,1870.56"/>
    </edge>
    <edge id=":6147648439_0" function="internal">
        <lane id=":6147648439_0_0" index="0" allow="private emergency authority army vip passenger hov taxi bus coach delivery truck trailer motorcycle evehicle custom1 custom2" speed="27.78" length="0.25" shape="271.32,1618.81 271.33,1618.49"/>
        <lane id=":6147648439_0_1" index="1" allow="private emergency authority army vip passenger hov taxi bus coach delivery truck trailer motorcycle evehicle custom1 custom2" speed="27.78" length="0.25" shape="274.51,1618.93 274.52,1618.75"/>
    </edge>
    <edge id=":622004885_0" function="internal">
        <lane id=":622004885_0_0" index="0" allow="private emergency authority army vip passenger hov taxi bus coach delivery truck trailer motorcycle evehicle custom1 custom2" speed="22.22" length="0.30" shape="551.37,2115.85 551.07,2115.85"/>
    </edge>
    <edge id=":622004886_0" function="internal">
        <lane id=":622004886_0_0" index="0" allow="private emergency authority army vip passenger hov taxi bus coach delivery truck trailer motorcycle evehicle custom1 custom2" speed="22.22" length="17.67" shape="520.30,2119.46 516.24,2118.49 511.69,2117.38 507.12,2116.45 503.00,2115.98"/>
    </edge>
    <edge id=":622004886_1" function="internal">
        <lane id=":622004886_1_0" index="0" allow="private emergency authority army vip passenger hov taxi bus coach delivery truck trailer motorcycle evehicle custom1 custom2" speed="22.22" length="17.67" shape="520.67,2115.97 503.00,2115.98"/>
    </edge>
    <edge id=":622004918_0" function="internal">
        <lane id=":622004918_0_0" index="0" allow="private emergency authority army vip passenger hov taxi bus coach delivery truck trailer motorcycle evehicle custom1 custom2" speed="22.22" length="0.25" shape="551.25,2104.66 551.51,2104.67"/>
    </edge>
    <edge id=":622006364_0" function="internal">
        <lane id=":622006364_0_0" index="0" allow="private emergency authority army vip passenger hov taxi bus coach delivery truck trailer motorcycle evehicle custom1 custom2" speed="22.22" length="0.10" shape="13.39,2107.43 13.39,2107.43"/>
    </edge>
    <edge id=":622006365_0" function="internal">
        <lane id=":622006365_0_0" index="0" allow="private emergency authority army vip passenger hov taxi bus coach delivery truck trailer motorcycle evehicle custom1 custom2" speed="22.22" length="0.30" shape="13.45,2119.04 13.15,2119.04"/>
    </edge>
    <edge id=":7541334796_0" function="internal">
        <lane id=":7541334796_0_0" index="0" allow="private emergency authority army vip passenger hov taxi bus coach delivery truck trailer motorcycle evehicle custom1 custom2" speed="22.22" length="0.30" shape="22.21,2118.98 21.91,2118.98"/>
    </edge>

    <edge id="20944661" from="224939128" to="224939130" priority="14" type="highway.motorway" spreadType="center">
        <lane id="20944661_0" index="0" allow="private emergency authority army vip passenger hov taxi bus coach delivery truck trailer motorcycle evehicle custom1 custom2" speed="27.78" length="1053.39" shape="301.32,299.48 301.31,1352.87"/>
        <lane id="20944661_1" index="1" allow="private emergency authority army vip passenger hov taxi bus coach delivery truck trailer motorcycle evehicle custom1 custom2" speed="27.78" length="1053.39" shape="298.12,299.48 298.11,1352.87"/>
        <lane id="20944661_2" index="2" allow="private emergency authority army vip passenger hov taxi bus coach delivery truck trailer motorcycle evehicle custom1 custom2" speed="27.78" length="1053.39" shape="294.92,299.48 294.91,1352.87"/>
        <param key="ref" value="40"/>
    </edge>
    <edge id="20944678" from="110468280" to="110468282" priority="14" type="highway.motorway" spreadType="center">
        <lane id="20944678_0" index="0" allow="private emergency authority army vip passenger hov taxi bus coach delivery truck trailer motorcycle evehicle custom1 custom2" speed="27.78" length="1053.43" shape="280.58,1352.88 279.80,299.46"/>
        <lane id="20944678_1" index="1" allow="private emergency authority army vip passenger hov taxi bus coach delivery truck trailer motorcycle evehicle custom1 custom2" speed="27.78" length="1053.43" shape="283.78,1352.88 283.00,299.45"/>
        <lane id="20944678_2" index="2" allow="private emergency authority army vip passenger hov taxi bus coach delivery truck trailer motorcycle evehicle custom1 custom2" speed="27.78" length="1053.43" shape="286.98,1352.88 286.20,299.45"/>
        <param key="ref" value="40"/>
    </edge>
    <edge id="23376934" from="253108231" to="253108232" priority="9" type="highway.motorway_link" spreadType="center" shape="869.12,3266.11 824.68,3186.19 717.35,3031.02">
        <lane id="23376934_0" index="0" allow="private emergency authority army vip passenger hov taxi bus coach delivery truck trailer motorcycle evehicle custom1 custom2" speed="22.22" length="203.09" shape="869.12,3266.11 824.68,3186.19 761.17,3094.37"/>
    </edge>
    <edge id="32792588" from="369531449" to="369531657" priority="9" type="highway.motorway_link" spreadType="center" shape="13.82,2066.37 30.42,2093.96 46.89,2106.93">
        <lane id="32792588_0" index="0" allow="private emergency authority army vip passenger hov taxi bus coach delivery truck trailer motorcycle evehicle custom1 custom2" speed="22.22" length="47.15" shape="13.82,2066.37 30.42,2093.96 42.17,2103.21"/>
    </edge>
    <edge id="32792594" from="110468925" to="369532166" priority="9" type="highway.motorway_link" spreadType="center" shape="294.99,2374.40 271.65,2309.60 246.11,2218.14 225.19,2169.87 210.19,2149.51 186.52,2132.78 158.85,2123.00 66.72,2118.62">
        <lane id="32792594_0" index="0" allow="private emergency authority army vip passenger hov taxi bus coach delivery truck trailer motorcycle evehicle custom1 custom2" speed="22.22" length="362.38" shape="285.50,2348.05 271.65,2309.60 246.11,2218.14 225.19,2169.87 210.19,2149.51 186.52,2132.78 158.85,2123.00 68.63,2118.71"/>
    </edge>
    <edge id="32797693" from="369590986" to="369590992" priority="9" type="highway.motorway_link" spreadType="center" shape="758.42,3025.40 869.87,3143.06 901.68,3177.66 948.75,3212.47">
        <lane id="32797693_0" index="0" allow="private emergency authority army vip passenger hov taxi bus coach delivery truck trailer motorcycle evehicle custom1 custom2" speed="22.22" length="213.03" shape="795.96,3065.03 869.87,3143.06 901.68,3177.66 948.75,3212.47"/>
    </edge>
    <edge id="3452446#0" from="110468273" to="110468272" priority="14" type="highway.motorway" spreadType="center">
        <lane id="3452446#0_0" index="0" allow="private emergency authority army vip passenger hov taxi bus coach delivery truck trailer motorcycle evehicle custom1 custom2" speed="27.78" length="81.00" shape="313.48,2227.91 327.18,2307.74"/>
        <lane id="3452446#0_1" index="1" allow="private emergency authority army vip passenger hov taxi bus coach delivery truck trailer motorcycle evehicle custom1 custom2" speed="27.78" length="81.00" shape="310.33,2228.45 324.03,2308.28"/>
        <param key="ref" value="40"/>
    </edge>
    <edge id="3452446#1" from="110468272" to="369590986" priority="14" type="highway.motorway" spreadType="center" shape="333.46,2353.81 358.05,2429.87 391.54,2511.58 432.62,2590.44 559.55,2770.96 755.62,3021.81 758.42,3025.40">
        <lane id="3452446#1_0" index="0" allow="private emergency authority army vip passenger hov taxi bus coach delivery truck trailer motorcycle evehicle custom1 custom2" speed="27.78" length="815.49" shape="334.39,2351.50 359.56,2429.32 392.99,2510.91 433.99,2589.60 560.83,2770.01 756.88,3020.83 767.57,3034.50"/>
        <lane id="3452446#1_1" index="1" allow="private emergency authority army vip passenger hov taxi bus coach delivery truck trailer motorcycle evehicle custom1 custom2" speed="27.78" length="815.49" shape="331.35,2352.48 356.55,2430.42 390.09,2512.26 431.25,2591.27 558.26,2771.92 754.36,3022.80 765.05,3036.47"/>
        <param key="ref" value="40"/>
    </edge>
    <edge id="3452446#2" from="369590986" to="110474686" priority="14" type="highway.motorway" spreadType="center">
        <lane id="3452446#2_0" index="0" allow="private emergency authority army vip passenger hov taxi bus coach delivery truck trailer motorcycle evehicle custom1 custom2" speed="27.78" length="162.97" shape="793.25,3067.36 893.60,3195.77"/>
        <lane id="3452446#2_1" index="1" allow="private emergency authority army vip passenger hov taxi bus coach delivery truck trailer motorcycle evehicle custom1 custom2" speed="27.78" length="162.97" shape="790.72,3069.33 891.08,3197.74"/>
        <param key="ref" value="40"/>
    </edge>
    <edge id="45178175" from="573353250" to="622004876" priority="9" type="highway.motorway_link" spreadType="center" shape="504.47,2104.12 526.54,2099.28 533.81,2096.08 539.23,2091.90 541.97,2087.62 544.32,2082.93 546.86,2073.56 551.53,2051.91">
        <lane id="45178175_0" index="0" allow="private emergency authority army vip passenger hov taxi bus coach delivery truck trailer motorcycle evehicle custom1 custom2" speed="22.22" length="64.07" shape="519.60,2100.80 526.54,2099.28 533.81,2096.08 539.23,2091.90 541.97,2087.62 544.32,2082.93 546.86,2073.56 551.53,2051.91"/>
    </edge>
    <edge id="45178183" from="622004886" to="110468272" priority="9" type="highway.motorway_link" spreadType="center" shape="504.64,2116.04 411.39,2112.95 388.69,2120.85 366.70,2135.42 346.26,2156.69 333.16,2187.26 330.96,2215.52 327.74,2253.76 333.46,2353.81">
        <lane id="45178183_0" index="0" allow="private emergency authority army vip passenger hov taxi bus coach delivery truck trailer motorcycle evehicle custom1 custom2" speed="22.22" length="325.20" shape="503.00,2115.98 411.39,2112.95 388.69,2120.85 366.70,2135.42 346.26,2156.69 333.16,2187.26 330.96,2215.52 327.74,2253.76 330.80,2307.33"/>
    </edge>
    <edge id="45178185" from="573353392" to="573353250" priority="9" type="highway.motorway_link" spreadType="center" shape="310.85,1815.50 322.57,1948.94 331.41,2012.38 344.02,2052.58 368.57,2079.68 399.15,2097.73 428.32,2100.78 504.47,2104.12">