<?xml version="1.0" encoding="UTF-8"?>

<!-- generated on 05/05/21 12:22:49 by Eclipse SUMO netconvert Version 1.7.0
<configuration xmlns:xsi="http://www.w3.org/2001/XMLSchema-instance" xsi:noNamespaceSchemaLocation="http://sumo.dlr.de/xsd/netconvertConfiguration.xsd">

    <input>
        <osm-files value="Pont.osm"/>
    </input>

    <output>
        <output-file value="Pont.net.xml"/>
    </output>

    <projection>
        <proj.utm value="true"/>
    </projection>

    <edge_removal>
        <keep-edges.by-type value="highway.motorway,highway.motorway_link"/>
    </edge_removal>

    <report>
        <aggregate-warnings value="5"/>
        <ignore-errors value="true"/>
    </report>

</configuration>
-->

<net version="1.6" junctionCornerDetail="5" limitTurnSpeed="5.50" xmlns:xsi="http://www.w3.org/2001/XMLSchema-instance" xsi:noNamespaceSchemaLocation="http://sumo.dlr.de/xsd/net_file.xsd">

    <location netOffset="-593254.95,-5039733.56" convBoundary="0.00,0.00,15513.70,16199.95" origBoundary="-73.810222,45.500173,-73.599027,45.652274" projParameter="+proj=utm +zone=18 +ellps=WGS84 +datum=WGS84 +units=m +no_defs"/>

    <type id="highway.bridleway" priority="1" numLanes="1" speed="2.78" allow="pedestrian" oneway="1" width="2.00"/>
    <type id="highway.bus_guideway" priority="1" numLanes="1" speed="27.78" allow="bus" oneway="1"/>
    <type id="highway.cycleway" priority="1" numLanes="1" speed="8.33" allow="bicycle" oneway="0" width="1.00"/>
    <type id="highway.footway" priority="1" numLanes="1" speed="2.78" allow="pedestrian" oneway="1" width="2.00"/>
    <type id="highway.ford" priority="1" numLanes="1" speed="2.78" allow="army" oneway="0"/>
    <type id="highway.living_street" priority="2" numLanes="1" speed="2.78" disallow="tram rail_urban rail rail_electric rail_fast ship" oneway="0"/>
    <type id="highway.motorway" priority="14" numLanes="2" speed="39.44" allow="private emergency authority army vip passenger hov taxi bus coach delivery truck trailer motorcycle evehicle custom1 custom2" oneway="1"/>
    <type id="highway.motorway_link" priority="9" numLanes="1" speed="22.22" allow="private emergency authority army vip passenger hov taxi bus coach delivery truck trailer motorcycle evehicle custom1 custom2" oneway="1"/>
    <type id="highway.path" priority="1" numLanes="1" speed="2.78" allow="pedestrian bicycle" oneway="1" width="2.00"/>
    <type id="highway.pedestrian" priority="1" numLanes="1" speed="2.78" allow="pedestrian" oneway="1" width="2.00"/>
    <type id="highway.primary" priority="12" numLanes="2" speed="27.78" disallow="tram rail_urban rail rail_electric rail_fast ship" oneway="0"/>
    <type id="highway.primary_link" priority="7" numLanes="1" speed="22.22" disallow="tram rail_urban rail rail_electric rail_fast ship" oneway="0"/>
    <type id="highway.raceway" priority="15" numLanes="2" speed="83.33" allow="vip" oneway="0"/>
    <type id="highway.residential" priority="3" numLanes="1" speed="13.89" disallow="tram rail_urban rail rail_electric rail_fast ship" oneway="0"/>
    <type id="highway.secondary" priority="11" numLanes="1" speed="27.78" disallow="tram rail_urban rail rail_electric rail_fast ship" oneway="0"/>
    <type id="highway.secondary_link" priority="6" numLanes="1" speed="22.22" disallow="tram rail_urban rail rail_electric rail_fast ship" oneway="0"/>
    <type id="highway.service" priority="1" numLanes="1" speed="5.56" allow="pedestrian delivery bicycle" oneway="0"/>
    <type id="highway.stairs" priority="1" numLanes="1" speed="1.39" allow="pedestrian" oneway="1" width="2.00"/>
    <type id="highway.step" priority="1" numLanes="1" speed="1.39" allow="pedestrian" oneway="1" width="2.00"/>
    <type id="highway.steps" priority="1" numLanes="1" speed="1.39" allow="pedestrian" oneway="1" width="2.00"/>
    <type id="highway.tertiary" priority="10" numLanes="1" speed="22.22" disallow="tram rail_urban rail rail_electric rail_fast ship" oneway="0"/>
    <type id="highway.tertiary_link" priority="5" numLanes="1" speed="22.22" disallow="tram rail_urban rail rail_electric rail_fast ship" oneway="0"/>
    <type id="highway.track" priority="1" numLanes="1" speed="5.56" allow="pedestrian motorcycle moped bicycle" oneway="0"/>
    <type id="highway.trunk" priority="13" numLanes="2" speed="27.78" disallow="pedestrian bicycle tram rail_urban rail rail_electric rail_fast ship" oneway="0"/>
    <type id="highway.trunk_link" priority="8" numLanes="1" speed="22.22" disallow="pedestrian bicycle tram rail_urban rail rail_electric rail_fast ship" oneway="0"/>
    <type id="highway.unclassified" priority="4" numLanes="1" speed="13.89" disallow="tram rail_urban rail rail_electric rail_fast ship" oneway="0"/>
    <type id="highway.unsurfaced" priority="1" numLanes="1" speed="8.33" disallow="tram rail_urban rail rail_electric rail_fast ship" oneway="0"/>
    <type id="railway.highspeed" priority="21" numLanes="1" speed="69.44" allow="rail_fast" oneway="1"/>
    <type id="railway.light_rail" priority="19" numLanes="1" speed="27.78" allow="rail_urban" oneway="1"/>
    <type id="railway.preserved" priority="16" numLanes="1" speed="27.78" allow="rail" oneway="1"/>
    <type id="railway.rail" priority="20" numLanes="1" speed="44.44" allow="rail" oneway="1"/>
    <type id="railway.subway" priority="18" numLanes="1" speed="27.78" allow="rail_urban" oneway="1"/>
    <type id="railway.tram" priority="17" numLanes="1" speed="13.89" allow="tram" oneway="1"/>

    <edge id=":116352321_0" function="internal">
        <lane id=":116352321_0_0" index="0" allow="private emergency authority army vip passenger hov taxi bus coach delivery truck trailer motorcycle evehicle custom1 custom2" speed="27.78" length="0.30" shape="3540.18,387.06 3540.06,387.23"/>
        <lane id=":116352321_0_1" index="1" allow="private emergency authority army vip passenger hov taxi bus coach delivery truck trailer motorcycle evehicle custom1 custom2" speed="27.78" length="0.30" shape="3537.61,385.15 3537.44,385.40"/>
        <lane id=":116352321_0_2" index="2" allow="private emergency authority army vip passenger hov taxi bus coach delivery truck trailer motorcycle evehicle custom1 custom2" speed="27.78" length="0.30" shape="3535.04,383.25 3534.81,383.57"/>
    </edge>
    <edge id=":116352322_0" function="internal">
        <lane id=":116352322_0_0" index="0" allow="private emergency authority army vip passenger hov taxi bus coach delivery truck trailer motorcycle evehicle custom1 custom2" speed="27.78" length="8.79" shape="3461.95,493.80 3460.83,496.04 3460.76,497.92 3460.71,499.81 3459.64,502.08"/>
    </edge>
    <edge id=":116352322_1" function="internal">
        <lane id=":116352322_1_0" index="0" allow="private emergency authority army vip passenger hov taxi bus coach delivery truck trailer motorcycle evehicle custom1 custom2" speed="27.78" length="8.02" shape="3464.38,495.51 3459.64,502.08"/>
        <lane id=":116352322_1_1" index="1" allow="private emergency authority army vip passenger hov taxi bus coach delivery truck trailer motorcycle evehicle custom1 custom2" speed="27.78" length="8.02" shape="3461.76,493.67 3457.07,500.17"/>
        <lane id=":116352322_1_2" index="2" allow="private emergency authority army vip passenger hov taxi bus coach delivery truck trailer motorcycle evehicle custom1 custom2" speed="27.78" length="8.02" shape="3459.14,491.84 3454.51,498.26"/>
    </edge>
    <edge id=":116352323_0" function="internal">
        <lane id=":116352323_0_0" index="0" allow="private emergency authority army vip passenger hov taxi bus coach delivery truck trailer motorcycle evehicle custom1 custom2" speed="27.78" length="0.29" shape="3382.74,605.27 3382.59,605.48"/>
        <lane id=":116352323_0_1" index="1" allow="private emergency authority army vip passenger hov taxi bus coach delivery truck trailer motorcycle evehicle custom1 custom2" speed="27.78" length="0.29" shape="3380.18,603.35 3380.00,603.59"/>
        <lane id=":116352323_0_2" index="2" allow="private emergency authority army vip passenger hov taxi bus coach delivery truck trailer motorcycle evehicle custom1 custom2" speed="27.78" length="0.29" shape="3377.61,601.44 3377.42,601.71"/>
    </edge>
    <edge id=":116352326_0" function="internal">
        <lane id=":116352326_0_0" index="0" allow="private emergency authority army vip passenger hov taxi bus coach delivery truck trailer motorcycle evehicle custom1 custom2" speed="23.61" length="69.75" shape="2832.52,1375.42 2795.99,1434.84"/>
    </edge>
    <edge id=":116352326_1" function="internal">
        <lane id=":116352326_1_0" index="0" allow="private emergency authority army vip passenger hov taxi bus coach delivery truck trailer motorcycle evehicle custom1 custom2" speed="23.61" length="69.83" shape="2832.52,1375.42 2793.26,1433.17"/>
    </edge>
    <edge id=":116352326_2" function="internal">
        <lane id=":116352326_2_0" index="0" allow="private emergency authority army vip passenger hov taxi bus coach delivery truck trailer motorcycle evehicle custom1 custom2" speed="27.78" length="69.83" shape="2832.52,1375.42 2790.32,1431.19"/>
        <lane id=":116352326_2_1" index="1" allow="private emergency authority army vip passenger hov taxi bus coach delivery truck trailer motorcycle evehicle custom1 custom2" speed="27.78" length="69.83" shape="2829.88,1373.61 2787.74,1429.29"/>
        <lane id=":116352326_2_2" index="2" allow="private emergency authority army vip passenger hov taxi bus coach delivery truck trailer motorcycle evehicle custom1 custom2" speed="27.78" length="69.83" shape="2827.24,1371.79 2785.17,1427.39"/>
    </edge>
    <edge id=":116368399_0" function="internal">
        <lane id=":116368399_0_0" index="0" allow="private emergency authority army vip passenger hov taxi bus coach delivery truck trailer motorcycle evehicle custom1 custom2" speed="23.61" length="30.74" shape="939.32,3905.57 945.36,3897.10 949.86,3889.67 953.09,3883.65 955.38,3879.41"/>
    </edge>
    <edge id=":116368399_1" function="internal">
        <lane id=":116368399_1_0" index="0" allow="private emergency authority army vip passenger hov taxi bus coach delivery truck trailer motorcycle evehicle custom1 custom2" speed="27.78" length="30.72" shape="939.32,3905.57 958.46,3881.52"/>
        <lane id=":116368399_1_1" index="1" allow="private emergency authority army vip passenger hov taxi bus coach delivery truck trailer motorcycle evehicle custom1 custom2" speed="27.78" length="30.72" shape="941.84,3907.54 960.97,3883.50"/>
        <lane id=":116368399_1_2" index="2" allow="private emergency authority army vip passenger hov taxi bus coach delivery truck trailer motorcycle evehicle custom1 custom2" speed="27.78" length="30.72" shape="944.37,3909.51 963.48,3885.48"/>
    </edge>
    <edge id=":116368409_0" function="internal">
        <lane id=":116368409_0_0" index="0" allow="private emergency authority army vip passenger hov taxi bus coach delivery truck trailer motorcycle evehicle custom1 custom2" speed="27.78" length="0.29" shape="3002.62,1093.39 3002.77,1093.19"/>
        <lane id=":116368409_0_1" index="1" allow="private emergency authority army vip passenger hov taxi bus coach delivery truck trailer motorcycle evehicle custom1 custom2" speed="27.78" length="0.29" shape="3005.18,1095.30 3005.36,1095.07"/>
        <lane id=":116368409_0_2" index="2" allow="private emergency authority army vip passenger hov taxi bus coach delivery truck trailer motorcycle evehicle custom1 custom2" speed="27.78" length="0.29" shape="3007.75,1097.21 3007.95,1096.95"/>
    </edge>
    <edge id=":116383688_0" function="internal">
        <lane id=":116383688_0_0" index="0" allow="private emergency authority army vip passenger hov taxi bus coach delivery truck trailer motorcycle evehicle custom1 custom2" speed="27.78" length="0.30" shape="3365.72,593.12 3365.90,592.87"/>
        <lane id=":116383688_0_1" index="1" allow="private emergency authority army vip passenger hov taxi bus coach delivery truck trailer motorcycle evehicle custom1 custom2" speed="27.78" length="0.30" shape="3368.31,595.00 3368.49,594.76"/>
        <lane id=":116383688_0_2" index="2" allow="private emergency authority army vip passenger hov taxi bus coach delivery truck trailer motorcycle evehicle custom1 custom2" speed="27.78" length="0.30" shape="3370.90,596.88 3371.07,596.64"/>
    </edge>
    <edge id=":122828924_0" function="internal">
        <lane id=":122828924_0_0" index="0" allow="private emergency authority army vip passenger hov taxi bus coach delivery truck trailer motorcycle evehicle custom1 custom2" speed="23.61" length="8.71" shape="6160.76,5414.09 6162.04,5411.98 6162.24,5410.13 6162.40,5408.25 6163.60,5406.06"/>
    </edge>
    <edge id=":122828924_1" function="internal">
        <lane id=":122828924_1_0" index="0" allow="private emergency authority army vip passenger hov taxi bus coach delivery truck trailer motorcycle evehicle custom1 custom2" speed="27.78" length="7.97" shape="6158.45,5412.09 6163.60,5406.06"/>
        <lane id=":122828924_1_1" index="1" allow="private emergency authority army vip passenger hov taxi bus coach delivery truck trailer motorcycle evehicle custom1 custom2" speed="27.78" length="7.97" shape="6160.87,5414.18 6166.04,5408.12"/>
        <lane id=":122828924_1_2" index="2" allow="private emergency authority army vip passenger hov taxi bus coach delivery truck trailer motorcycle evehicle custom1 custom2" speed="27.78" length="7.97" shape="6163.29,5416.28 6168.49,5410.19"/>
    </edge>
    <edge id=":122828952_0" function="internal">
        <lane id=":122828952_0_0" index="0" allow="private emergency authority army vip passenger hov taxi bus coach delivery truck trailer motorcycle evehicle custom1 custom2" speed="27.78" length="9.51" shape="7764.14,3722.86 7766.76,3722.95 7768.55,3724.17 7770.33,3725.34 7772.91,3725.31"/>
    </edge>
    <edge id=":122828952_1" function="internal">
        <lane id=":122828952_1_0" index="0" allow="private emergency authority army vip passenger hov taxi bus coach delivery truck trailer motorcycle evehicle custom1 custom2" speed="27.78" length="7.88" shape="7764.14,3722.86 7771.52,3720.91"/>
        <lane id=":122828952_1_1" index="1" allow="private emergency authority army vip passenger hov taxi bus coach delivery truck trailer motorcycle evehicle custom1 custom2" speed="27.78" length="7.88" shape="7764.95,3725.95 7772.49,3723.96"/>
        <lane id=":122828952_1_2" index="2" allow="private emergency authority army vip passenger hov taxi bus coach delivery truck trailer motorcycle evehicle custom1 custom2" speed="27.78" length="7.88" shape="7765.77,3729.05 7773.46,3727.02"/>
        <lane id=":122828952_1_3" index="3" allow="private emergency authority army vip passenger hov taxi bus coach delivery truck trailer motorcycle evehicle custom1 custom2" speed="27.78" length="7.88" shape="7766.58,3732.14 7774.43,3730.07"/>
    </edge>
    <edge id=":122828953_0" function="internal">
        <lane id=":122828953_0_0" index="0" allow="private emergency authority army vip passenger hov taxi bus coach delivery truck trailer motorcycle evehicle custom1 custom2" speed="27.78" length="8.65" shape="7997.19,3643.49 7999.54,3643.10 8001.42,3643.93 8003.23,3644.65 8005.38,3643.95"/>
    </edge>
    <edge id=":122828953_1" function="internal">
        <lane id=":122828953_1_0" index="0" allow="private emergency authority army vip passenger hov taxi bus coach delivery truck trailer motorcycle evehicle custom1 custom2" speed="27.78" length="7.12" shape="7997.19,3643.49 8002.80,3640.48"/>
        <lane id=":122828953_1_1" index="1" allow="private emergency authority army vip passenger hov taxi bus coach delivery truck trailer motorcycle evehicle custom1 custom2" speed="27.78" length="7.12" shape="7998.68,3646.32 8004.73,3643.07"/>
        <lane id=":122828953_1_2" index="2" allow="private emergency authority army vip passenger hov taxi bus coach delivery truck trailer motorcycle evehicle custom1 custom2" speed="27.78" length="7.12" shape="8000.17,3649.15 8006.67,3645.66"/>
        <lane id=":122828953_1_3" index="3" allow="private emergency authority army vip passenger hov taxi bus coach delivery truck trailer motorcycle evehicle custom1 custom2" speed="27.78" length="7.12" shape="8001.66,3651.99 8008.60,3648.25"/>
    </edge>
    <edge id=":122840722_0" function="internal">
        <lane id=":122840722_0_0" index="0" allow="private emergency authority army vip passenger hov taxi bus coach delivery truck trailer motorcycle evehicle custom1 custom2" speed="23.61" length="8.70" shape="5326.05,6445.46 5327.93,6443.84 5329.73,6443.29 5331.50,6442.73 5333.32,6441.05"/>
    </edge>
    <edge id=":122840722_1" function="internal">
        <lane id=":122840722_1_0" index="0" allow="private emergency authority army vip passenger hov taxi bus coach delivery truck trailer motorcycle evehicle custom1 custom2" speed="27.78" length="7.94" shape="5326.05,6445.46 5330.85,6439.28"/>
        <lane id=":122840722_1_1" index="1" allow="private emergency authority army vip passenger hov taxi bus coach delivery truck trailer motorcycle evehicle custom1 custom2" speed="27.78" length="7.94" shape="5328.57,6447.42 5333.45,6441.15"/>
        <lane id=":122840722_1_2" index="2" allow="private emergency authority army vip passenger hov taxi bus coach delivery truck trailer motorcycle evehicle custom1 custom2" speed="27.78" length="7.94" shape="5331.10,6449.38 5336.05,6443.02"/>
    </edge>
    <edge id=":1314049547_0" function="internal">
        <lane id=":1314049547_0_0" index="0" allow="private emergency authority army vip passenger hov taxi bus coach delivery truck trailer motorcycle evehicle custom1 custom2" speed="22.22" length="0.26" shape="14927.97,14085.01 14928.17,14084.75"/>
        <lane id=":1314049547_0_1" index="1" allow="private emergency authority army vip passenger hov taxi bus coach delivery truck trailer motorcycle evehicle custom1 custom2" speed="22.22" length="0.26" shape="14930.56,14086.89 14930.67,14086.74"/>
    </edge>
    <edge id=":1338766291_0" function="internal">
        <lane id=":1338766291_0_0" index="0" allow="private emergency authority army vip passenger hov taxi bus coach delivery truck trailer motorcycle evehicle custom1 custom2" speed="25.00" length="8.18" shape="13568.69,15878.25 13567.27,15880.18 13566.63,15881.74 13566.00,15883.31 13564.65,15885.31"/>
    </edge>
    <edge id=":1338766291_1" function="internal">
        <lane id=":1338766291_1_0" index="0" allow="private emergency authority army vip passenger hov taxi bus coach delivery truck trailer motorcycle evehicle custom1 custom2" speed="27.78" length="8.00" shape="13569.78,15879.16 13564.65,15885.31"/>
        <lane id=":1338766291_1_1" index="1" allow="private emergency authority army vip passenger hov taxi bus coach delivery truck trailer motorcycle evehicle custom1 custom2" speed="27.78" length="8.00" shape="13567.33,15877.11 13562.20,15883.25"/>
    </edge>
    <edge id=":1343972765_0" function="internal">
        <lane id=":1343972765_0_0" index="0" allow="private emergency authority army vip passenger hov taxi bus coach delivery truck trailer motorcycle evehicle custom1 custom2" speed="23.61" length="44.87" shape="1511.29,3205.65 1506.60,3210.87 1498.82,3219.59 1490.01,3229.87 1482.23,3239.81"/>
    </edge>
    <edge id=":1343972765_1" function="internal">
        <lane id=":1343972765_1_0" index="0" allow="private emergency authority army vip passenger hov taxi bus coach delivery truck trailer motorcycle evehicle custom1 custom2" speed="27.78" length="44.87" shape="1508.51,3203.45 1482.23,3239.81"/>
        <lane id=":1343972765_1_1" index="1" allow="private emergency authority army vip passenger hov taxi bus coach delivery truck trailer motorcycle evehicle custom1 custom2" speed="27.78" length="44.87" shape="1505.91,3201.58 1479.64,3237.94"/>
        <lane id=":1343972765_1_2" index="2" allow="private emergency authority army vip passenger hov taxi bus coach delivery truck trailer motorcycle evehicle custom1 custom2" speed="27.78" length="44.87" shape="1503.32,3199.70 1477.04,3236.07"/>
    </edge>
    <edge id=":1611062309_0" function="internal">
        <lane id=":1611062309_0_0" index="0" allow="private emergency authority army vip passenger hov taxi bus coach delivery truck trailer motorcycle evehicle custom1 custom2" speed="19.44" length="0.30" shape="5270.41,6480.76 5270.59,6480.52"/>
        <lane id=":1611062309_0_1" index="1" allow="private emergency authority army vip passenger hov taxi bus coach delivery truck trailer motorcycle evehicle custom1 custom2" speed="19.44" length="0.30" shape="5272.94,6482.72 5273.12,6482.48"/>
    </edge>
    <edge id=":1611062310_0" function="internal">
        <lane id=":1611062310_0_0" index="0" allow="private emergency authority army vip passenger hov taxi bus coach delivery truck trailer motorcycle evehicle custom1 custom2" speed="27.78" length="0.30" shape="5288.57,6493.82 5288.77,6493.56"/>
        <lane id=":1611062310_0_1" index="1" allow="private emergency authority army vip passenger hov taxi bus coach delivery truck trailer motorcycle evehicle custom1 custom2" speed="27.78" length="0.30" shape="5291.12,6495.76 5291.30,6495.52"/>
        <lane id=":1611062310_0_2" index="2" allow="private emergency authority army vip passenger hov taxi bus coach delivery truck trailer motorcycle evehicle custom1 custom2" speed="27.78" length="0.30" shape="5293.66,6497.69 5293.83,6497.48"/>
    </edge>
    <edge id=":1611062311_0" function="internal">
        <lane id=":1611062311_0_0" index="0" allow="private emergency authority army vip passenger hov taxi bus coach delivery truck trailer motorcycle evehicle custom1 custom2" speed="27.78" length="0.31" shape="5336.74,6521.55 5336.54,6521.80"/>
        <lane id=":1611062311_0_1" index="1" allow="private emergency authority army vip passenger hov taxi bus coach delivery truck trailer motorcycle evehicle custom1 custom2" speed="27.78" length="0.31" shape="5334.20,6519.60 5334.01,6519.85"/>
        <lane id=":1611062311_0_2" index="2" allow="private emergency authority army vip passenger hov taxi bus coach delivery truck trailer motorcycle evehicle custom1 custom2" speed="27.78" length="0.31" shape="5331.66,6517.65 5331.48,6517.89"/>
        <lane id=":1611062311_0_3" index="3" allow="private emergency authority army vip passenger hov taxi bus coach delivery truck trailer motorcycle evehicle custom1 custom2" speed="27.78" length="0.31" shape="5329.12,6515.70 5328.95,6515.93"/>
    </edge>
    <edge id=":1611062311_4" function="internal">
        <lane id=":1611062311_4_0" index="0" allow="bus bicycle" speed="27.78" length="0.27" shape="5326.42,6513.97 5326.59,6513.75"/>
    </edge>
    <edge id=":1611062312_0" function="internal">
        <lane id=":1611062312_0_0" index="0" allow="private emergency authority army vip passenger hov taxi bus coach delivery truck trailer motorcycle evehicle custom1 custom2" speed="19.44" length="8.21" shape="5243.71,6517.85 5244.98,6515.80 5245.53,6514.20 5246.08,6512.59 5247.35,6510.55"/>
        <lane id=":1611062312_0_1" index="1" allow="private emergency authority army vip passenger hov taxi bus coach delivery truck trailer motorcycle evehicle custom1 custom2" speed="19.44" length="8.21" shape="5243.71,6517.85 5245.38,6516.11 5246.79,6515.18 5248.21,6514.25 5249.88,6512.50"/>
    </edge>
    <edge id=":1611062314_0" function="internal">
        <lane id=":1611062314_0_0" index="0" allow="private emergency authority army vip passenger hov taxi bus coach delivery truck trailer motorcycle evehicle custom1 custom2" speed="27.78" length="0.30" shape="5262.52,6528.09 5262.71,6527.84"/>
        <lane id=":1611062314_0_1" index="1" allow="private emergency authority army vip passenger hov taxi bus coach delivery truck trailer motorcycle evehicle custom1 custom2" speed="27.78" length="0.30" shape="5265.07,6530.02 5265.26,6529.78"/>
        <lane id=":1611062314_0_2" index="2" allow="private emergency authority army vip passenger hov taxi bus coach delivery truck trailer motorcycle evehicle custom1 custom2" speed="27.78" length="0.30" shape="5267.63,6531.95 5267.80,6531.72"/>
    </edge>
    <edge id=":1611062321_0" function="internal">
        <lane id=":1611062321_0_0" index="0" allow="private emergency authority army vip passenger hov taxi bus coach delivery truck trailer motorcycle evehicle custom1 custom2" speed="27.78" length="12.14" shape="5304.78,6562.84 5302.06,6564.30 5299.18,6563.54 5296.32,6562.78 5293.65,6564.29"/>
        <lane id=":1611062321_0_1" index="1" allow="private emergency authority army vip passenger hov taxi bus coach delivery truck trailer motorcycle evehicle custom1 custom2" speed="27.78" length="12.14" shape="5302.25,6560.88 5299.52,6562.36 5296.63,6561.61 5293.76,6560.87 5291.08,6562.39"/>
        <lane id=":1611062321_0_2" index="2" allow="private emergency authority army vip passenger hov taxi bus coach delivery truck trailer motorcycle evehicle custom1 custom2" speed="27.78" length="12.14" shape="5299.72,6558.92 5296.98,6560.41 5294.08,6559.67 5291.19,6558.95 5288.51,6560.48"/>
    </edge>
    <edge id=":1611062321_3" function="internal">
        <lane id=":1611062321_3_0" index="0" allow="bus" speed="3.65" length="4.67" shape="5297.19,6556.96 5295.82,6557.42 5294.95,6557.25 5294.56,6556.44 5294.66,6555.00"/>
    </edge>
    <edge id=":1766826068_0" function="internal">
        <lane id=":1766826068_0_0" index="0" allow="private emergency authority army vip passenger hov taxi bus coach delivery truck trailer motorcycle evehicle custom1 custom2" speed="22.22" length="0.10" shape="10098.62,8961.86 10098.62,8961.86"/>
    </edge>
    <edge id=":1767178748_0" function="internal">
        <lane id=":1767178748_0_0" index="0" allow="private emergency authority army vip passenger hov taxi bus coach delivery truck trailer motorcycle evehicle custom1 custom2" speed="27.78" length="0.30" shape="8066.45,3601.71 8066.66,3601.56"/>
        <lane id=":1767178748_0_1" index="1" allow="private emergency authority army vip passenger hov taxi bus coach delivery truck trailer motorcycle evehicle custom1 custom2" speed="27.78" length="0.30" shape="8068.29,3604.33 8068.52,3604.16"/>
        <lane id=":1767178748_0_2" index="2" allow="private emergency authority army vip passenger hov taxi bus coach delivery truck trailer motorcycle evehicle custom1 custom2" speed="27.78" length="0.30" shape="8070.13,3606.94 8070.38,3606.76"/>
        <lane id=":1767178748_0_3" index="3" allow="private emergency authority army vip passenger hov taxi bus coach delivery truck trailer motorcycle evehicle custom1 custom2" speed="27.78" length="0.30" shape="8071.97,3609.56 8072.25,3609.36"/>
    </edge>
    <edge id=":1767178756_0" function="internal">
        <lane id=":1767178756_0_0" index="0" allow="private emergency authority army vip passenger hov taxi bus coach delivery truck trailer motorcycle evehicle custom1 custom2" speed="27.78" length="0.10" shape="8157.41,3639.01 8157.41,3639.01"/>
    </edge>
    <edge id=":1767178796_0" function="internal">
        <lane id=":1767178796_0_0" index="0" allow="private emergency authority army vip passenger hov taxi bus coach delivery truck trailer motorcycle evehicle custom1 custom2" speed="27.78" length="0.42" shape="8097.40,3579.01 8097.63,3578.84"/>
        <lane id=":1767178796_0_1" index="1" allow="private emergency authority army vip passenger hov taxi bus coach delivery truck trailer motorcycle evehicle custom1 custom2" speed="27.78" length="0.42" shape="8099.32,3581.57 8099.62,3581.34"/>
        <lane id=":1767178796_0_2" index="2" allow="private emergency authority army vip passenger hov taxi bus coach delivery truck trailer motorcycle evehicle custom1 custom2" speed="27.78" length="0.42" shape="8101.24,3584.13 8101.62,3583.85"/>
        <lane id=":1767178796_0_3" index="3" allow="private emergency authority army vip passenger hov taxi bus coach delivery truck trailer motorcycle evehicle custom1 custom2" speed="27.78" length="0.42" shape="8103.16,3586.69 8103.61,3586.35"/>
    </edge>
    <edge id=":1767178820_0" function="internal">
        <lane id=":1767178820_0_0" index="0" allow="private emergency authority army vip passenger hov taxi bus coach delivery truck trailer motorcycle evehicle custom1 custom2" speed="27.78" length="0.31" shape="8090.30,3629.18 8090.00,3629.39"/>
        <lane id=":1767178820_0_1" index="1" allow="private emergency authority army vip passenger hov taxi bus coach delivery truck trailer motorcycle evehicle custom1 custom2" speed="27.78" length="0.31" shape="8088.46,3626.57 8088.19,3626.76"/>
        <lane id=":1767178820_0_2" index="2" allow="private emergency authority army vip passenger hov taxi bus coach delivery truck trailer motorcycle evehicle custom1 custom2" speed="27.78" length="0.31" shape="8086.61,3623.95 8086.37,3624.12"/>
        <lane id=":1767178820_0_3" index="3" allow="private emergency authority army vip passenger hov taxi bus coach delivery truck trailer motorcycle evehicle custom1 custom2" speed="27.78" length="0.31" shape="8084.77,3621.34 8084.56,3621.48"/>
    </edge>
    <edge id=":1767178820_4" function="internal">
        <lane id=":1767178820_4_0" index="0" allow="bus bicycle" speed="27.78" length="0.21" shape="8082.75,3618.84 8082.93,3618.72"/>
    </edge>
    <edge id=":1767178918_0" function="internal">
        <lane id=":1767178918_0_0" index="0" allow="private emergency authority army vip passenger hov taxi bus coach delivery truck trailer motorcycle evehicle custom1 custom2" speed="27.78" length="0.29" shape="8063.21,3600.36 8063.44,3600.18"/>
    </edge>
    <edge id=":1767178935_0" function="internal">