<?xml version="1.0" encoding="UTF-8"?>
<!-- generated on 2021-05-25 15:40:05.878265 by gtfs2pt.py v1_9_1+0312-3d3ec1003c
  options: <doubleminus>network CarteMontreal_Sans_Un_Res.net.xml <doubleminus>gtfs gtfs_stm.zip <doubleminus>date 20200907
-->
<routes xmlns:xsi="http://www.w3.org/2001/XMLSchema-instance" xsi:noNamespaceSchemaLocation="http://sumo.dlr.de/xsd/routes_file.xsd">
    <vehicle id="219767347.0" route="219767347" type="bus" depart="18650" line="10_219767347"/>
    <vehicle id="219767348.0" route="219767348" type="bus" depart="20390" line="10_219767348"/>
    <vehicle id="219767349.0" route="219767347" type="bus" depart="22130" line="10_219767347"/>
    <vehicle id="219767350.0" route="219767348" type="bus" depart="23930" line="10_219767348"/>
    <vehicle id="219767351.0" route="219767347" type="bus" depart="25610" line="10_219767347"/>
    <vehicle id="219767352.0" route="219767348" type="bus" depart="27530" line="10_219767348"/>
    <vehicle id="219767353.0" route="219767347" type="bus" depart="29210" line="10_219767347"/>
    <vehicle id="219767354.0" route="219767348" type="bus" depart="31130" line="10_219767348"/>
    <vehicle id="219767355.0" route="219767347" type="bus" depart="32810" line="10_219767347"/>
    <vehicle id="219767356.0" route="219767348" type="bus" depart="34730" line="10_219767348"/>
    <vehicle id="219767357.0" route="219767347" type="bus" depart="36410" line="10_219767347"/>
    <vehicle id="219767358.0" route="219767348" type="bus" depart="38330" line="10_219767348"/>
    <vehicle id="219767359.0" route="219767347" type="bus" depart="40010" line="10_219767347"/>
    <vehicle id="219767360.0" route="219767348" type="bus" depart="41930" line="10_219767348"/>
    <vehicle id="219767361.0" route="219767347" type="bus" depart="45350" line="10_219767347"/>
    <vehicle id="219767362.0" route="219767348" type="bus" depart="47270" line="10_219767348"/>
    <vehicle id="219767363.0" route="219767347" type="bus" depart="50690" line="10_219767347"/>
    <vehicle id="219767364.0" route="219767348" type="bus" depart="52610" line="10_219767348"/>
    <vehicle id="219767365.0" route="219767347" type="bus" depart="56030" line="10_219767347"/>
    <vehicle id="219767366.0" route="219767348" type="bus" depart="57950" line="10_219767348"/>
    <vehicle id="219767367.0" route="219767347" type="bus" depart="61430" line="10_219767347"/>
    <vehicle id="219767370.0" route="219767347" type="bus" depart="20390" line="10_219767347"/>
    <vehicle id="219767371.0" route="219767348" type="bus" depart="22190" line="10_219767348"/>
    <vehicle id="219767372.0" route="219767347" type="bus" depart="23870" line="10_219767347"/>
    <vehicle id="219767373.0" route="219767348" type="bus" depart="25730" line="10_219767348"/>
    <vehicle id="219767374.0" route="219767347" type="bus" depart="27410" line="10_219767347"/>
    <vehicle id="219767375.0" route="219767348" type="bus" depart="29330" line="10_219767348"/>
    <vehicle id="219767376.0" route="219767347" type="bus" depart="31010" line="10_219767347"/>
    <vehicle id="219767377.0" route="219767348" type="bus" depart="32930" line="10_219767348"/>
    <vehicle id="219767378.0" route="219767347" type="bus" depart="34610" line="10_219767347"/>
    <vehicle id="219767379.0" route="219767348" type="bus" depart="36530" line="10_219767348"/>
    <vehicle id="219767380.0" route="219767347" type="bus" depart="38210" line="10_219767347"/>
    <vehicle id="219767381.0" route="219767348" type="bus" depart="40130" line="10_219767348"/>
    <vehicle id="219767382.0" route="219767347" type="bus" depart="43550" line="10_219767347"/>
    <vehicle id="219767383.0" route="219767348" type="bus" depart="45470" line="10_219767348"/>
    <vehicle id="219767384.0" route="219767347" type="bus" depart="48950" line="10_219767347"/>
    <vehicle id="219767385.0" route="219767348" type="bus" depart="50870" line="10_219767348"/>
    <vehicle id="219767386.0" route="219767347" type="bus" depart="54230" line="10_219767347"/>
    <vehicle id="219767387.0" route="219767348" type="bus" depart="56150" line="10_219767348"/>
    <vehicle id="219767388.0" route="219767347" type="bus" depart="59630" line="10_219767347"/>
    <vehicle id="219767389.0" route="219767348" type="bus" depart="61550" line="10_219767348"/>
    <vehicle id="219767390.0" route="219767347" type="bus" depart="65030" line="10_219767347"/>
    <vehicle id="219767391.0" route="219767348" type="bus" depart="66830" line="10_219767348"/>
    <vehicle id="219767392.0" route="219767347" type="bus" depart="70250" line="10_219767347"/>
    <vehicle id="219767393.0" route="219767348" type="bus" depart="72050" line="10_219767348"/>
    <vehicle id="219767396.0" route="219767347" type="bus" depart="47150" line="10_219767347"/>
    <vehicle id="219767397.0" route="219767348" type="bus" depart="49070" line="10_219767348"/>
    <vehicle id="219767398.0" route="219767347" type="bus" depart="52430" line="10_219767347"/>
    <vehicle id="219767399.0" route="219767348" type="bus" depart="54350" line="10_219767348"/>
    <vehicle id="219767400.0" route="219767347" type="bus" depart="57830" line="10_219767347"/>
    <vehicle id="219767401.0" route="219767348" type="bus" depart="59750" line="10_219767348"/>
    <vehicle id="219767402.0" route="219767347" type="bus" depart="63230" line="10_219767347"/>
    <vehicle id="219767403.0" route="219767348" type="bus" depart="65090" line="10_219767348"/>
    <vehicle id="219767404.0" route="219767347" type="bus" depart="68270" line="10_219767347"/>
    <vehicle id="219767405.0" route="219767348" type="bus" depart="70310" line="10_219767348"/>
    <vehicle id="219767406.0" route="219767347" type="bus" depart="73670" line="10_219767347"/>
    <vehicle id="219767407.0" route="219767348" type="bus" depart="75470" line="10_219767348"/>
    <vehicle id="219767408.0" route="219767347" type="bus" depart="77150" line="10_219767347"/>
    <vehicle id="219767409.0" route="219767348" type="bus" depart="79010" line="10_219767348"/>
    <vehicle id="219767410.0" route="219767347" type="bus" depart="80810" line="10_219767347"/>
    <vehicle id="219767411.0" route="219767348" type="bus" depart="82610" line="10_219767348"/>
    <vehicle id="219767412.0" route="219767347" type="bus" depart="84410" line="10_219767347"/>
    <vehicle id="219767666.0" route="219767347" type="bus" depart="78950" line="10_219767347"/>
    <vehicle id="219767667.0" route="219767348" type="bus" depart="80810" line="10_219767348"/>
    <vehicle id="219767668.0" route="219767347" type="bus" depart="82610" line="10_219767347"/>
    <vehicle id="219767669.0" route="219767348" type="bus" depart="86210" line="10_219767348"/>
    <vehicle id="219767687.0" route="219767348" type="bus" depart="63170" line="10_219767348"/>
    <vehicle id="219768034.0" route="219767347" type="bus" depart="75350" line="10_219767347"/>
    <vehicle id="219768035.0" route="219767348" type="bus" depart="77330" line="10_219767348"/>
    <vehicle id="219768409.0" route="219767347" type="bus" depart="66410" line="10_219767347"/>
    <vehicle id="219768410.0" route="219767348" type="bus" depart="68570" line="10_219767348"/>
    <vehicle id="219768413.0" route="219767347" type="bus" depart="41750" line="10_219767347"/>
    <vehicle id="219768414.0" route="219767348" type="bus" depart="43670" line="10_219767348"/>
    <vehicle id="219768467.0" route="219767347" type="bus" depart="71930" line="10_219767347"/>
    <vehicle id="219768468.0" route="219767348" type="bus" depart="73730" line="10_219767348"/>
    <vehicle id="219768550.0" route="219767348" type="bus" depart="84410" line="10_219767348"/>
    <vehicle id="219768551.0" route="219767347" type="bus" depart="86210" line="10_219767347"/>
    <vehicle id="219443418.0" route="219443418" type="bus" depart="48710" line="100_219443418"/>
    <vehicle id="219443420.0" route="219443420" type="bus" depart="51710" line="100_219443420"/>
    <vehicle id="219443421.0" route="219443421" type="bus" depart="54830" line="100_219443421"/>
    <vehicle id="219443448.0" route="219443418" type="bus" depart="50510" line="100_219443418"/>
    <vehicle id="219443449.0" route="219443421" type="bus" depart="52730" line="100_219443421"/>
    <vehicle id="219443451.0" route="219443418" type="bus" depart="54710" line="100_219443418"/>
    <vehicle id="219443452.0" route="219443421" type="bus" depart="56810" line="100_219443421"/>
    <vehicle id="219443479.0" route="219443418" type="bus" depart="22730" line="100_219443418"/>
    <vehicle id="219443480.0" route="219443421" type="bus" depart="26210" line="100_219443421"/>
    <vehicle id="219443482.0" route="219443418" type="bus" depart="28550" line="100_219443418"/>
    <vehicle id="219443483.0" route="219443421" type="bus" depart="30890" line="100_219443421"/>
    <vehicle id="219443485.0" route="219443418" type="bus" depart="32630" line="100_219443418"/>
    <vehicle id="219443486.0" route="219443421" type="bus" depart="34550" line="100_219443421"/>
    <vehicle id="219443488.0" route="219443418" type="bus" depart="36290" line="100_219443418"/>
    <vehicle id="219443489.0" route="219443421" type="bus" depart="38210" line="100_219443421"/>
    <vehicle id="219443491.0" route="219443418" type="bus" depart="39950" line="100_219443418"/>
    <vehicle id="219443492.0" route="219443421" type="bus" depart="41870" line="100_219443421"/>
    <vehicle id="219443494.0" route="219443418" type="bus" depart="43970" line="100_219443418"/>
    <vehicle id="219443497.0" route="219443418" type="bus" depart="27230" line="100_219443418"/>
    <vehicle id="219443498.0" route="219443421" type="bus" depart="29390" line="100_219443421"/>
    <vehicle id="219443500.0" route="219443418" type="bus" depart="31310" line="100_219443418"/>
    <vehicle id="219443503.0" route="219443418" type="bus" depart="43130" line="100_219443418"/>
    <vehicle id="219443504.0" route="219443421" type="bus" depart="45470" line="100_219443421"/>
    <vehicle id="219443506.0" route="219443418" type="bus" depart="47930" line="100_219443418"/>
    <vehicle id="219443507.0" route="219443421" type="bus" depart="50330" line="100_219443421"/>
    <vehicle id="219443509.0" route="219443418" type="bus" depart="52610" line="100_219443418"/>
    <vehicle id="219443510.0" route="219443421" type="bus" depart="55130" line="100_219443421"/>
    <vehicle id="219443512.0" route="219443421" type="bus" depart="58370" line="100_219443421"/>
    <vehicle id="219443515.0" route="219443418" type="bus" depart="44810" line="100_219443418"/>
    <vehicle id="219443516.0" route="219443421" type="bus" depart="47270" line="100_219443421"/>
    <vehicle id="219443518.0" route="219443418" type="bus" depart="49430" line="100_219443418"/>
    <vehicle id="219443519.0" route="219443421" type="bus" depart="51530" line="100_219443421"/>
    <vehicle id="219443521.0" route="219443418" type="bus" depart="53690" line="100_219443418"/>
    <vehicle id="219443522.0" route="219443421" type="bus" depart="55970" line="100_219443421"/>
    <vehicle id="219443524.0" route="219443418" type="bus" depart="58070" line="100_219443418"/>
    <vehicle id="219443525.0" route="219443421" type="bus" depart="60470" line="100_219443421"/>
    <vehicle id="219443527.0" route="219443418" type="bus" depart="63110" line="100_219443418"/>
    <vehicle id="219443528.0" route="219443421" type="bus" depart="65090" line="100_219443421"/>
    <vehicle id="219443530.0" route="219443418" type="bus" depart="66950" line="100_219443418"/>
    <vehicle id="219443531.0" route="219443421" type="bus" depart="68930" line="100_219443421"/>
    <vehicle id="219443533.0" route="219443418" type="bus" depart="70790" line="100_219443418"/>
    <vehicle id="219443534.0" route="219443421" type="bus" depart="72650" line="100_219443421"/>
    <vehicle id="219443536.0" route="219443418" type="bus" depart="74510" line="100_219443418"/>
    <vehicle id="219443537.0" route="219443421" type="bus" depart="76370" line="100_219443421"/>
    <vehicle id="219443539.0" route="219443418" type="bus" depart="78290" line="100_219443418"/>
    <vehicle id="219443540.0" route="219443421" type="bus" depart="80090" line="100_219443421"/>
    <vehicle id="219443542.0" route="219443418" type="bus" depart="81890" line="100_219443418"/>
    <vehicle id="219443543.0" route="219443421" type="bus" depart="83690" line="100_219443421"/>
    <vehicle id="219443545.0" route="219443418" type="bus" depart="85490" line="100_219443418"/>
    <vehicle id="219443552.0" route="219443418" type="bus" depart="47150" line="100_219443418"/>
    <vehicle id="219443553.0" route="219443421" type="bus" depart="49070" line="100_219443421"/>
    <vehicle id="219443555.0" route="219443418" type="bus" depart="51530" line="100_219443418"/>
    <vehicle id="219443556.0" route="219443421" type="bus" depart="53930" line="100_219443421"/>
    <vehicle id="219443558.0" route="219443418" type="bus" depart="56690" line="100_219443418"/>
    <vehicle id="219443559.0" route="219443421" type="bus" depart="59090" line="100_219443421"/>
    <vehicle id="219443561.0" route="219443418" type="bus" depart="61310" line="100_219443418"/>
    <vehicle id="219443562.0" route="219443421" type="bus" depart="63530" line="100_219443421"/>
    <vehicle id="219443565.0" route="219443421" type="bus" depart="59750" line="100_219443421"/>
    <vehicle id="219443567.0" route="219443421" type="bus" depart="62810" line="100_219443421"/>
    <vehicle id="219443569.0" route="219443418" type="bus" depart="65030" line="100_219443418"/>
    <vehicle id="219443570.0" route="219443421" type="bus" depart="67010" line="100_219443421"/>
    <vehicle id="219443572.0" route="219443418" type="bus" depart="68870" line="100_219443418"/>
    <vehicle id="219443573.0" route="219443421" type="bus" depart="70790" line="100_219443421"/>
    <vehicle id="219443575.0" route="219443418" type="bus" depart="72650" line="100_219443418"/>
    <vehicle id="219443576.0" route="219443421" type="bus" depart="74510" line="100_219443421"/>
    <vehicle id="219443578.0" route="219443418" type="bus" depart="76370" line="100_219443418"/>
    <vehicle id="219443579.0" route="219443421" type="bus" depart="78230" line="100_219443421"/>
    <vehicle id="219443581.0" route="219443418" type="bus" depart="80090" line="100_219443418"/>
    <vehicle id="219443582.0" route="219443421" type="bus" depart="81890" line="100_219443421"/>
    <vehicle id="219443584.0" route="219443418" type="bus" depart="83690" line="100_219443418"/>
    <vehicle id="219443585.0" route="219443421" type="bus" depart="85490" line="100_219443421"/>
    <vehicle id="219443926.0" route="219443421" type="bus" depart="18290" line="100_219443421"/>
    <vehicle id="219443928.0" route="219443418" type="bus" depart="20690" line="100_219443418"/>
    <vehicle id="219443986.0" route="219443418" type="bus" depart="24590" line="100_219443418"/>
    <vehicle id="219444145.0" route="219443421" type="bus" depart="20090" line="100_219443421"/>
    <vehicle id="219444147.0" route="219443418" type="bus" depart="21890" line="100_219443418"/>
    <vehicle id="219444270.0" route="219443420" type="bus" depart="80990" line="100_219443420"/>
    <vehicle id="219444357.0" route="219443421" type="bus" depart="61250" line="100_219443421"/>
    <vehicle id="219444359.0" route="219443421" type="bus" depart="64310" line="100_219443421"/>
    <vehicle id="219444404.0" route="219443418" type="bus" depart="23210" line="100_219443418"/>
    <vehicle id="219444405.0" route="219443421" type="bus" depart="25850" line="100_219443421"/>
    <vehicle id="219444494.0" route="219443418" type="bus" depart="37490" line="100_219443418"/>
    <vehicle id="219444495.0" route="219443421" type="bus" depart="40070" line="100_219443421"/>
    <vehicle id="219444497.0" route="219443418" type="bus" depart="42170" line="100_219443418"/>
    <vehicle id="219444530.0" route="219443418" type="bus" depart="41150" line="100_219443418"/>
    <vehicle id="219444531.0" route="219443421" type="bus" depart="43670" line="100_219443421"/>
    <vehicle id="219444533.0" route="219443418" type="bus" depart="45650" line="100_219443418"/>
    <vehicle id="219444574.0" route="219443418" type="bus" depart="22970" line="100_219443418"/>
    <vehicle id="219444690.0" route="219443418" type="bus" depart="18890" line="100_219443418"/>
    <vehicle id="219444691.0" route="219443421" type="bus" depart="21950" line="100_219443421"/>
    <vehicle id="219444693.0" route="219443418" type="bus" depart="23570" line="100_219443418"/>
    <vehicle id="219444946.0" route="219443418" type="bus" depart="55670" line="100_219443418"/>
    <vehicle id="219444947.0" route="219443421" type="bus" depart="57650" line="100_219443421"/>
    <vehicle id="219444949.0" route="219443418" type="bus" depart="59630" line="100_219443418"/>
    <vehicle id="219444950.0" route="219443421" type="bus" depart="62030" line="100_219443421"/>
    <vehicle id="219444959.0" route="219443418" type="bus" depart="33890" line="100_219443418"/>
    <vehicle id="219444960.0" route="219443421" type="bus" depart="36350" line="100_219443421"/>
    <vehicle id="219444962.0" route="219443418" type="bus" depart="38750" line="100_219443418"/>
    <vehicle id="219444980.0" route="219443421" type="bus" depart="66050" line="100_219443421"/>
    <vehicle id="219444983.0" route="219443418" type="bus" depart="46370" line="100_219443418"/>
    <vehicle id="219444985.0" route="219443418" type="bus" depart="49970" line="100_219443418"/>
    <vehicle id="219445029.0" route="219443418" type="bus" depart="22430" line="100_219443418"/>
    <vehicle id="219445036.0" route="219443420" type="bus" depart="22850" line="100_219443420"/>
    <vehicle id="219445037.0" route="219443421" type="bus" depart="23930" line="100_219443421"/>
    <vehicle id="219445039.0" route="219443418" type="bus" depart="25970" line="100_219443418"/>
    <vehicle id="219445040.0" route="219443421" type="bus" depart="27890" line="100_219443421"/>
    <vehicle id="219445042.0" route="219443418" type="bus" depart="29930" line="100_219443418"/>
    <vehicle id="219445043.0" route="219443421" type="bus" depart="32690" line="100_219443421"/>
    <vehicle id="219445045.0" route="219443418" type="bus" depart="35090" line="100_219443418"/>
    <vehicle id="219191034.0" route="219191034" type="bus" depart="23390" line="102_219191034"/>
    <vehicle id="219191035.0" route="219191035" type="bus" depart="25190" line="102_219191035"/>
    <vehicle id="219191037.0" route="219191034" type="bus" depart="26990" line="102_219191034"/>
    <vehicle id="219191038.0" route="219191035" type="bus" depart="28790" line="102_219191035"/>
    <vehicle id="219191040.0" route="219191034" type="bus" depart="30590" line="102_219191034"/>
    <vehicle id="219191041.0" route="219191035" type="bus" depart="32330" line="102_219191035"/>
    <vehicle id="219191043.0" route="219191034" type="bus" depart="34190" line="102_219191034"/>
    <vehicle id="219191044.0" route="219191035" type="bus" depart="35930" line="102_219191035"/>
    <vehicle id="219191046.0" route="219191034" type="bus" depart="37790" line="102_219191034"/>
    <vehicle id="219191047.0" route="219191035" type="bus" depart="39530" line="102_219191035"/>
    <vehicle id="219191049.0" route="219191034" type="bus" depart="41390" line="102_219191034"/>
    <vehicle id="219191050.0" route="219191035" type="bus" depart="43130" line="102_219191035"/>
    <vehicle id="219191052.0" route="219191034" type="bus" depart="44990" line="102_219191034"/>
    <vehicle id="219191053.0" route="219191035" type="bus" depart="46730" line="102_219191035"/>
    <vehicle id="219191055.0" route="219191034" type="bus" depart="48590" line="102_219191034"/>
    <vehicle id="219191056.0" route="219191035" type="bus" depart="50330" line="102_219191035"/>
    <vehicle id="219191058.0" route="219191034" type="bus" depart="52190" line="102_219191034"/>
    <vehicle id="219191059.0" route="219191035" type="bus" depart="53930" line="102_219191035"/>
    <vehicle id="219191061.0" route="219191034" type="bus" depart="55790" line="102_219191034"/>
    <vehicle id="219191062.0" route="219191035" type="bus" depart="57530" line="102_219191035"/>
    <vehicle id="219191064.0" route="219191034" type="bus" depart="59390" line="102_219191034"/>
    <vehicle id="219191065.0" route="219191035" type="bus" depart="61130" line="102_219191035"/>
    <vehicle id="219191067.0" route="219191034" type="bus" depart="62990" line="102_219191034"/>
    <vehicle id="219191068.0" route="219191035" type="bus" depart="64730" line="102_219191035"/>
    <vehicle id="219191070.0" route="219191034" type="bus" depart="66590" line="102_219191034"/>
    <vehicle id="219191071.0" route="219191035" type="bus" depart="68330" line="102_219191035"/>
    <vehicle id="219191073.0" route="219191034" type="bus" depart="70190" line="102_219191034"/>
    <vehicle id="219191074.0" route="219191035" type="bus" depart="71930" line="102_219191035"/>
    <vehicle id="219191076.0" route="219191034" type="bus" depart="73790" line="102_219191034"/>
    <vehicle id="219191077.0" route="219191035" type="bus" depart="75590" line="102_219191035"/>
    <vehicle id="219191079.0" route="219191034" type="bus" depart="77570" line="102_219191034"/>
    <vehicle id="219191080.0" route="219191035" type="bus" depart="79310" line="102_219191035"/>
    <vehicle id="219191083.0" route="219191035" type="bus" depart="23390" line="102_219191035"/>
    <vehicle id="219191085.0" route="219191034" type="bus" depart="25190" line="102_219191034"/>
    <vehicle id="219191086.0" route="219191035" type="bus" depart="26990" line="102_219191035"/>
    <vehicle id="219191088.0" route="219191034" type="bus" depart="28790" line="102_219191034"/>
    <vehicle id="219191089.0" route="219191035" type="bus" depart="30590" line="102_219191035"/>
    <vehicle id="219191091.0" route="219191034" type="bus" depart="32390" line="102_219191034"/>
    <vehicle id="219191092.0" route="219191035" type="bus" depart="34130" line="102_219191035"/>
    <vehicle id="219191094.0" route="219191034" type="bus" depart="35990" line="102_219191034"/>
    <vehicle id="219191095.0" route="219191035" type="bus" depart="37730" line="102_219191035"/>
    <vehicle id="219191097.0" route="219191034" type="bus" depart="39590" line="102_219191034"/>
    <vehicle id="219191098.0" route="219191035" type="bus" depart="41330" line="102_219191035"/>
    <vehicle id="219191100.0" route="219191034" type="bus" depart="43190" line="102_219191034"/>
    <vehicle id="219191101.0" route="219191035" type="bus" depart="44930" line="102_219191035"/>
    <vehicle id="219191103.0" route="219191034" type="bus" depart="46790" line="102_219191034"/>
    <vehicle id="219191104.0" route="219191035" type="bus" depart="48530" line="102_219191035"/>
    <vehicle id="219191106.0" route="219191034" type="bus" depart="50390" line="102_219191034"/>
    <vehicle id="219191107.0" route="219191035" type="bus" depart="52130" line="102_219191035"/>
    <vehicle id="219191109.0" route="219191034" type="bus" depart="53990" line="102_219191034"/>
    <vehicle id="219191110.0" route="219191035" type="bus" depart="55730" line="102_219191035"/>
    <vehicle id="219191112.0" route="219191034" type="bus" depart="57590" line="102_219191034"/>
    <vehicle id="219191113.0" route="219191035" type="bus" depart="59330" line="102_219191035"/>
    <vehicle id="219191115.0" route="219191034" type="bus" depart="61190" line="102_219191034"/>
    <vehicle id="219191116.0" route="219191035" type="bus" depart="62930" line="102_219191035"/>
    <vehicle id="219191118.0" route="219191034" type="bus" depart="64790" line="102_219191034"/>
    <vehicle id="219191119.0" route="219191035" type="bus" depart="66530" line="102_219191035"/>
    <vehicle id="219191121.0" route="219191034" type="bus" depart="68390" line="102_219191034"/>
    <vehicle id="219191122.0" route="219191035" type="bus" depart="70130" line="102_219191035"/>
    <vehicle id="219192332.0" route="219191034" type="bus" depart="71990" line="102_219191034"/>
    <vehicle id="219192333.0" route="219191035" type="bus" depart="73730" line="102_219191035"/>
    <vehicle id="219192335.0" route="219191034" type="bus" depart="75590" line="102_219191034"/>
    <vehicle id="219192336.0" route="219191035" type="bus" depart="77450" line="102_219191035"/>
    <vehicle id="219192338.0" route="219191034" type="bus" depart="79970" line="102_219191034"/>
    <vehicle id="219192339.0" route="219191035" type="bus" depart="81290" line="102_219191035"/>
    <vehicle id="219192341.0" route="219191034" type="bus" depart="82730" line="102_219191034"/>
    <vehicle id="219192342.0" route="219191035" type="bus" depart="84050" line="102_219191035"/>
    <vehicle id="219192344.0" route="219191034" type="bus" depart="85610" line="102_219191034"/>
    <vehicle id="219443591.0" route="219443591" type="bus" depart="20990" line="103_219443591"/>
    <vehicle id="219443593.0" route="219443593" type="bus" depart="22550" line="103_219443593"/>
    <vehicle id="219443594.0" route="219443591" type="bus" depart="24470" line="103_219443591"/>
    <vehicle id="219443596.0" route="219443593" type="bus" depart="26090" line="103_219443593"/>
    <vehicle id="219443597.0" route="219443591" type="bus" depart="27950" line="103_219443591"/>
    <vehicle id="219443599.0" route="219443593" type="bus" depart="29690" line="103_219443593"/>
    <vehicle id="219443600.0" route="219443591" type="bus" depart="31490" line="103_219443591"/>
    <vehicle id="219443602.0" route="219443593" type="bus" depart="33290" line="103_219443593"/>
    <vehicle id="219443603.0" route="219443591" type="bus" depart="35030" line="103_219443591"/>
    <vehicle id="219443605.0" route="219443593" type="bus" depart="36950" line="103_219443593"/>
    <vehicle id="219443606.0" route="219443591" type="bus" depart="39350" line="103_219443591"/>
    <vehicle id="219443608.0" route="219443593" type="bus" depart="42350" line="103_219443593"/>
    <vehicle id="219443609.0" route="219443591" type="bus" depart="45050" line="103_219443591"/>
    <vehicle id="219443619.0" route="219443591" type="bus" depart="22730" line="103_219443591"/>
    <vehicle id="219443621.0" route="219443593" type="bus" depart="24290" line="103_219443593"/>
    <vehicle id="219443622.0" route="219443591" type="bus" depart="26210" line="103_219443591"/>
    <vehicle id="219443624.0" route="219443593" type="bus" depart="27890" line="103_219443593"/>
    <vehicle id="219443625.0" route="219443591" type="bus" depart="29750" line="103_219443591"/>
    <vehicle id="219443627.0" route="219443593" type="bus" depart="31490" line="103_219443593"/>
    <vehicle id="219443628.0" route="219443591" type="bus" depart="34070" line="103_219443591"/>
    <vehicle id="219443636.0" route="219443591" type="bus" depart="47450" line="103_219443591"/>
    <vehicle id="219443644.0" route="219443593" type="bus" depart="60830" line="103_219443593"/>
    <vehicle id="219443645.0" route="219443591" type="bus" depart="63170" line="103_219443591"/>
    <vehicle id="219443650.0" route="219443593" type="bus" depart="69710" line="103_219443593"/>
    <vehicle id="219443651.0" route="219443591" type="bus" depart="72230" line="103_219443591"/>
    <vehicle id="219443653.0" route="219443593" type="bus" depart="73670" line="103_219443593"/>
    <vehicle id="219443654.0" route="219443591" type="bus" depart="75710" line="103_219443591"/>
    <vehicle id="219443656.0" route="219443593" type="bus" depart="77150" line="103_219443593"/>
    <vehicle id="219443657.0" route="219443591" type="bus" depart="79130" line="103_219443591"/>
    <vehicle id="219443659.0" route="219443593" type="bus" depart="80630" line="103_219443593"/>
    <vehicle id="219443660.0" route="219443591" type="bus" depart="82550" line="103_219443591"/>
    <vehicle id="219443662.0" route="219443593" type="bus" depart="84230" line="103_219443593"/>
    <vehicle id="219443663.0" route="219443591" type="bus" depart="86090" line="103_219443591"/>
    <vehicle id="219443686.0" route="219443591" type="bus" depart="44210" line="103_219443591"/>
    <vehicle id="219443688.0" route="219443593" type="bus" depart="45950" line="103_219443593"/>
    <vehicle id="219443689.0" route="219443591" type="bus" depart="48230" line="103_219443591"/>
    <vehicle id="219443691.0" route="219443593" type="bus" depart="49970" line="103_219443593"/>
    <vehicle id="219443692.0" route="219443591" type="bus" depart="52190" line="103_219443591"/>
    <vehicle id="219443694.0" route="219443593" type="bus" depart="54230" line="103_219443593"/>
    <vehicle id="219443696.0" route="219443593" type="bus" depart="57350" line="103_219443593"/>
    <vehicle id="219443697.0" route="219443591" type="bus" depart="59750" line="103_219443591"/>
    <vehicle id="219443699.0" route="219443593" type="bus" depart="61550" line="103_219443593"/>
    <vehicle id="219443701.0" route="219443593" type="bus" depart="64670" line="103_219443593"/>
    <vehicle id="219443702.0" route="219443591" type="bus" depart="66830" line="103_219443591"/>
    <vehicle id="219443704.0" route="219443593" type="bus" depart="68870" line="103_219443593"/>
    <vehicle id="219443712.0" route="219443591" type="bus" depart="38510" line="103_219443591"/>
    <vehicle id="219443714.0" route="219443593" type="bus" depart="40550" line="103_219443593"/>
    <vehicle id="219443715.0" route="219443591" type="bus" depart="42590" line="103_219443591"/>
    <vehicle id="219443717.0" route="219443591" type="bus" depart="45890" line="103_219443591"/>
    <vehicle id="219443719.0" route="219443593" type="bus" depart="47690" line="103_219443593"/>
    <vehicle id="219443720.0" route="219443591" type="bus" depart="50570" line="103_219443591"/>
    <vehicle id="219443722.0" route="219443593" type="bus" depart="52610" line="103_219443593"/>