<?xml version="1.0" encoding="UTF-8"?>

<!-- generated on 05/05/21 11:37:38 by Eclipse SUMO netedit Version 1.7.0
<configuration xmlns:xsi="http://www.w3.org/2001/XMLSchema-instance" xsi:noNamespaceSchemaLocation="http://sumo.dlr.de/xsd/netconvertConfiguration.xsd">

    <input>
        <sumo-net-file value="C:\Users\hugue\TestSUMo\CarteMontreal2.net.xml"/>
    </input>

    <output>
        <output-file value="C:\Users\hugue\TestSUMo\CarteMontreal2.net.xml"/>
    </output>

    <processing>
        <geometry.min-radius.fix.railways value="false"/>
        <geometry.max-grade.fix value="false"/>
        <offset.disable-normalization value="true"/>
        <lefthand value="false"/>
    </processing>

    <junctions>
        <no-turnarounds value="true"/>
        <junctions.corner-detail value="5"/>
        <junctions.limit-turn-speed value="5.5"/>
        <rectangular-lane-cut value="false"/>
    </junctions>

    <pedestrian>
        <walkingareas value="false"/>
    </pedestrian>

    <netedit>
        <additional-files value="C:\Users\hugue\TestSUMo\SUMO\TAZ\Pont_exterieur.add.xml"/>
    </netedit>

    <report>
        <aggregate-warnings value="5"/>
    </report>

</configuration>
-->

<additional xmlns:xsi="http://www.w3.org/2001/XMLSchema-instance" xsi:noNamespaceSchemaLocation="http://sumo.dlr.de/xsd/additional_file.xsd">
    <poly id="400-600" color="red" fill="0" layer="128.00" shape="11798.650000,13524.600000 15702.610000,12178.410000 17991.130000,14130.390000 21625.850000,16890.080000 23308.600000,18774.750000 23981.690000,19649.780000 25866.360000,26044.190000 28154.890000,27255.760000 34414.680000,33650.180000 39866.770000,33582.870000 43097.630000,36006.020000 34885.850000,38563.780000 11731.340000,25573.020000 11933.270000,13389.980000"/>
    <poly id="300-500" color="red" fill="0" layer="128.00" shape="-182.470000,2418.510000 1163.730000,-475.810000 24116.310000,2149.270000 25799.050000,1408.860000 29029.910000,1206.940000 32058.850000,5312.820000 33135.800000,5380.130000 34280.070000,7399.420000 34549.300000,9284.090000 33674.280000,10361.050000 33472.350000,13053.430000 34010.830000,14736.170000 36905.140000,23553.730000 49895.900000,15140.030000 43299.560000,-3168.190000 27279.860000,-6197.120000 -5634.550000,-7408.700000 -8730.790000,1206.940000 -8326.930000,2351.200000 -855.560000,3226.220000 -115.160000,2418.510000"/>
</additional>
